REMARK  Name = 4829
REMARK  8 active torsions:
REMARK  status: ('A' for Active; 'I' for Inactive)
REMARK    1  A    between atoms: O_2  and  C_14
REMARK    2  A    between atoms: O_2  and  C_15
REMARK    3  A    between atoms: C_7  and  C_8
REMARK    4  A    between atoms: C_8  and  C_9
REMARK    5  A    between atoms: C_13  and  C_15
REMARK    6  A    between atoms: C_13  and  C_18
REMARK    7  A    between atoms: C_20  and  C_22
REMARK    8  A    between atoms: C_22  and  C_25
REMARK                            x       y       z     vdW  Elec       q    Type
REMARK                         _______ _______ _______ _____ _____    ______ ____
ROOT
ATOM      1  C   UNL     1      -1.874  -0.183   0.150  0.00  0.00    -0.046 A 
ATOM      2  C   UNL     1      -1.571   1.040   0.729  0.00  0.00    +0.007 A 
ATOM      3  C   UNL     1      -1.026  -0.768  -0.779  0.00  0.00    +0.007 A 
ATOM      4  C   UNL     1       0.470   1.118  -0.561  0.00  0.00    +0.121 A 
ATOM      5  C   UNL     1      -0.392   1.694   0.371  0.00  0.00    +0.046 A 
ATOM      6  C   UNL     1       0.153  -0.113  -1.136  0.00  0.00    +0.046 A 
ENDROOT
BRANCH   4   7
ATOM      7  O   UNL     1       1.620   1.756  -0.912  0.00  0.00    -0.492 OA
BRANCH   7   8
ATOM      8  C   UNL     1       2.229   2.585   0.076  0.00  0.00    +0.235 C 
BRANCH   8   9
ATOM      9  C   UNL     1       3.738   2.621  -0.140  0.00  0.00    +0.096 C 
BRANCH   9  11
ATOM     10  N   UNL     1       4.452   0.530  -1.130  0.00  0.00    -0.260 NA
ATOM     11  C   UNL     1       4.370   1.257  -0.002  0.00  0.00    +0.045 A 
ATOM     12  C   UNL     1       5.496  -1.202   0.194  0.00  0.00    -0.030 A 
ATOM     13  C   UNL     1       4.811   0.853   1.239  0.00  0.00    +0.024 A 
ATOM     14  C   UNL     1       5.387  -0.409   1.331  0.00  0.00    +0.007 A 
ATOM     15  C   UNL     1       5.017  -0.691  -1.002  0.00  0.00    +0.114 A 
BRANCH  12  16
ATOM     16  C   UNL     1       6.109  -2.556   0.259  0.00  0.00    +0.033 C 
ATOM     17  C   UNL     1       5.082  -3.649   0.553  0.00  0.00    +0.009 C 
ENDBRANCH  12  16
ENDBRANCH   9  11
ENDBRANCH   8   9
ENDBRANCH   7   8
ENDBRANCH   4   7
BRANCH   1  18
ATOM     18  C   UNL     1      -3.147  -0.891   0.537  0.00  0.00    +0.059 C 
BRANCH  18  23
ATOM     19  S   UNL     1      -5.029   1.087   0.177  0.00  0.00    -0.054 S 
ATOM     20  O   UNL     1      -5.293  -2.697  -0.531  0.00  0.00    -0.274 OA
ATOM     21  O   UNL     1      -7.599   1.100   0.731  0.00  0.00    -0.263 OA
ATOM     22  N   UNL     1      -6.619  -0.910   0.100  0.00  0.00    -0.246 N 
ATOM     23  C   UNL     1      -4.310  -0.496  -0.356  0.00  0.00    +0.146 C 
ATOM     24  C   UNL     1      -5.433  -1.505  -0.280  0.00  0.00    +0.234 C 
ATOM     25  C   UNL     1      -6.639   0.430   0.383  0.00  0.00    +0.279 C 
ATOM     26  H   UNL     1      -7.466  -1.464   0.180  0.00  0.00    +0.158 HD
ENDBRANCH  18  23
ENDBRANCH   1  18
TORSDOF 7
