REMARK  Name = 
REMARK  2 active torsions:
REMARK  status: ('A' for Active; 'I' for Inactive)
REMARK    1  A    between atoms: C_9  and  C_11
REMARK    2  A    between atoms: C_18  and  C_25
REMARK                            x       y       z     vdW  Elec       q    Type
REMARK                         _______ _______ _______ _____ _____    ______ ____
ROOT
ATOM      1  C   UNL     1      -3.948  -0.312  -0.712  0.00  0.00    +0.001 A 
ATOM      2  C   UNL     1      -4.361  -1.584  -0.712  0.00  0.00    +0.002 A 
ATOM      3  C   UNL     1      -3.466  -2.578  -0.700  0.00  0.00    +0.026 A 
ATOM      4  C   UNL     1      -2.159  -2.300  -0.687  0.00  0.00    +0.053 A 
ATOM      5  C   UNL     1      -1.746  -1.028  -0.687  0.00  0.00    +0.014 A 
ATOM      6  C   UNL     1      -2.640  -0.034  -0.700  0.00  0.00    +0.011 A 
ATOM      7  N   UNL     1      -1.175  -3.096  -0.687  0.00  0.00    -0.311 N 
ATOM      8  C   UNL     1      -0.079  -2.464  -0.643  0.00  0.00    +0.207 A 
ATOM      9  C   UNL     1      -0.410  -0.958  -0.686  0.00  0.00    +0.086 A 
ATOM     10  O   UNL     1       1.093  -3.142  -0.585  0.00  0.00    -0.477 OA
ATOM     11  C   UNL     1      -0.868  -4.533  -0.736  0.00  0.00    +0.125 C 
ATOM     12  C   UNL     1       0.587  -4.787  -0.368  0.00  0.00    +0.025 C 
ATOM     13  C   UNL     1       1.536  -3.256   0.740  0.00  0.00    +0.231 C 
ATOM     14  C   UNL     1       0.814  -4.415   1.091  0.00  0.00    +0.043 C 
ENDROOT
BRANCH   9  15
ATOM     15  C   UNL     1       0.400   0.105  -0.713  0.00  0.00    +0.145 A 
ATOM     16  N   UNL     1       1.665   0.112  -0.749  0.00  0.00    -0.338 N 
ATOM     17  C   UNL     1       2.113   1.296  -0.766  0.00  0.00    +0.068 A 
ATOM     18  C   UNL     1       1.115   2.185  -0.741  0.00  0.00    +0.090 A 
ATOM     19  N   UNL     1      -0.004   1.608  -0.707  0.00  0.00    -0.228 NA
ATOM     20  C   UNL     1       3.381   1.716  -0.816  0.00  0.00    +0.043 A 
ATOM     21  C   UNL     1       3.652   3.025  -0.837  0.00  0.00    +0.023 A 
ATOM     22  C   UNL     1       2.654   3.914  -0.817  0.00  0.00    -0.034 A 
ATOM     23  C   UNL     1       1.385   3.494  -0.767  0.00  0.00    +0.034 A 
ATOM     24 BR   UNL     1       5.437   3.615  -0.894  0.00  0.00    -0.050 Br
ATOM     25  C   UNL     1       2.957   5.380  -0.851  0.00  0.00    +0.045 C 
ATOM     26  H   UNL     1       2.264  -0.751  -0.762  0.00  0.00    +0.167 HD
ENDBRANCH   9  15
TORSDOF 1
