REMARK  Name = 
REMARK  2 active torsions:
REMARK  status: ('A' for Active; 'I' for Inactive)
REMARK    1  A    between atoms: C_9  and  C_11
REMARK    2  A    between atoms: C_17  and  C_24
REMARK                            x       y       z     vdW  Elec       q    Type
REMARK                         _______ _______ _______ _____ _____    ______ ____
ROOT
ATOM      1  C   UNL     1      -3.932  -0.897  -0.712  0.00  0.00    +0.001 A 
ATOM      2  C   UNL     1      -4.115  -2.222  -0.712  0.00  0.00    +0.002 A 
ATOM      3  C   UNL     1      -3.060  -3.043  -0.700  0.00  0.00    +0.026 A 
ATOM      4  C   UNL     1      -1.822  -2.539  -0.687  0.00  0.00    +0.053 A 
ATOM      5  C   UNL     1      -1.638  -1.215  -0.687  0.00  0.00    +0.014 A 
ATOM      6  C   UNL     1      -2.694  -0.394  -0.700  0.00  0.00    +0.011 A 
ATOM      7  N   UNL     1      -0.713  -3.151  -0.687  0.00  0.00    -0.311 N 
ATOM      8  C   UNL     1       0.255  -2.335  -0.643  0.00  0.00    +0.207 A 
ATOM      9  C   UNL     1      -0.336  -0.911  -0.686  0.00  0.00    +0.086 A 
ATOM     10  O   UNL     1       1.527  -2.797  -0.585  0.00  0.00    -0.477 OA
ATOM     11  C   UNL     1      -0.159  -4.511  -0.736  0.00  0.00    +0.125 C 
ATOM     12  C   UNL     1       1.319  -4.505  -0.368  0.00  0.00    +0.025 C 
ATOM     13  C   UNL     1       1.477  -4.099   1.091  0.00  0.00    +0.043 C 
ATOM     14  C   UNL     1       1.984  -2.832   0.740  0.00  0.00    +0.231 C 
ENDROOT
BRANCH   9  15
ATOM     15  C   UNL     1       0.274   0.278  -0.713  0.00  0.00    +0.145 A 
ATOM     16  N   UNL     1       1.519   0.507  -0.749  0.00  0.00    -0.338 N 
ATOM     17  C   UNL     1       1.751   1.751  -0.766  0.00  0.00    +0.068 A 
ATOM     18  C   UNL     1       0.612   2.451  -0.741  0.00  0.00    +0.090 A 
ATOM     19  N   UNL     1      -0.388   1.686  -0.707  0.00  0.00    -0.228 NA
ATOM     20  C   UNL     1       2.926   2.387  -0.816  0.00  0.00    +0.046 A 
ATOM     21  C   UNL     1       2.962   3.724  -0.837  0.00  0.00    +0.054 A 
ATOM     22  C   UNL     1       1.823   4.424  -0.817  0.00  0.00    +0.021 A 
ATOM     23  C   UNL     1       0.649   3.788  -0.767  0.00  0.00    +0.031 A 
ATOM     24  H   UNL     1       2.260  -0.237  -0.762  0.00  0.00    +0.167 HD
BRANCH  21  25
ATOM     25  C   UNL     1       4.116   4.348  -0.876  0.00  0.00    +0.099 C 
ATOM     26  N   UNL     1       5.134   4.900  -0.911  0.00  0.00    -0.191 NA
ENDBRANCH  21  25
ENDBRANCH   9  15
TORSDOF 2
