REMARK  Name = 
REMARK  3 active torsions:
REMARK  status: ('A' for Active; 'I' for Inactive)
REMARK    1  A    between atoms: C_9  and  C_11
REMARK    2  A    between atoms: C_17  and  O_24
REMARK    3  A    between atoms: O_24  and  C_25
REMARK                            x       y       z     vdW  Elec       q    Type
REMARK                         _______ _______ _______ _____ _____    ______ ____
ROOT
ATOM      1  C   UNL     1      -4.261  -0.007  -0.703  0.00  0.00    +0.001 A 
ATOM      2  C   UNL     1      -4.674  -1.278  -0.703  0.00  0.00    +0.002 A 
ATOM      3  C   UNL     1      -3.779  -2.272  -0.690  0.00  0.00    +0.026 A 
ATOM      4  C   UNL     1      -2.471  -1.994  -0.678  0.00  0.00    +0.053 A 
ATOM      5  C   UNL     1      -2.058  -0.723  -0.678  0.00  0.00    +0.014 A 
ATOM      6  C   UNL     1      -2.953   0.271  -0.690  0.00  0.00    +0.011 A 
ATOM      7  N   UNL     1      -1.488  -2.791  -0.678  0.00  0.00    -0.311 N 
ATOM      8  C   UNL     1      -0.392  -2.158  -0.633  0.00  0.00    +0.207 A 
ATOM      9  C   UNL     1      -0.723  -0.652  -0.676  0.00  0.00    +0.086 A 
ATOM     10  O   UNL     1       0.780  -2.837  -0.575  0.00  0.00    -0.477 OA
ATOM     11  C   UNL     1      -1.181  -4.228  -0.726  0.00  0.00    +0.125 C 
ATOM     12  C   UNL     1       0.275  -4.481  -0.358  0.00  0.00    +0.025 C 
ATOM     13  C   UNL     1       1.224  -2.951   0.750  0.00  0.00    +0.231 C 
ATOM     14  C   UNL     1       0.501  -4.109   1.101  0.00  0.00    +0.043 C 
ENDROOT
BRANCH   9  15
ATOM     15  C   UNL     1       0.087   0.411  -0.703  0.00  0.00    +0.145 A 
ATOM     16  N   UNL     1       1.353   0.417  -0.739  0.00  0.00    -0.338 N 
ATOM     17  C   UNL     1       1.800   1.601  -0.756  0.00  0.00    +0.070 A 
ATOM     18  C   UNL     1       0.802   2.491  -0.732  0.00  0.00    +0.090 A 
ATOM     19  N   UNL     1      -0.317   1.913  -0.697  0.00  0.00    -0.228 NA
ATOM     20  C   UNL     1       3.068   2.021  -0.806  0.00  0.00    +0.073 A 
ATOM     21  C   UNL     1       3.339   3.330  -0.827  0.00  0.00    +0.122 A 
ATOM     22  C   UNL     1       2.341   4.220  -0.807  0.00  0.00    +0.048 A 
ATOM     23  C   UNL     1       1.073   3.800  -0.757  0.00  0.00    +0.033 A 
ATOM     24  H   UNL     1       1.952  -0.445  -0.752  0.00  0.00    +0.167 HD
BRANCH  21  25
ATOM     25  O   UNL     1       4.625   3.756  -0.868  0.00  0.00    -0.495 OA
ATOM     26  C   UNL     1       4.686   5.156  -0.883  0.00  0.00    +0.277 C 
ENDBRANCH  21  25
ENDBRANCH   9  15
TORSDOF 2
