REMARK  Name = C53H72NO14
REMARK  22 active torsions:
REMARK  status: ('A' for Active; 'I' for Inactive)
REMARK    1  A    between atoms: O_1  and  C_2
REMARK    2  A    between atoms: O_1  and  C_6
REMARK    3  A    between atoms: C_2  and  C_3
REMARK    4  A    between atoms: C_3  and  O_4
REMARK    5  A    between atoms: C_9  and  C_10
REMARK    6  A    between atoms: C_10  and  C_11
REMARK    7  A    between atoms: C_11  and  C_12
REMARK    8  A    between atoms: C_11  and  C_13
REMARK    9  A    between atoms: C_17  and  C_69
REMARK   10  A    between atoms: C_19  and  C_20
REMARK   11  A    between atoms: C_21  and  O_67
REMARK   12  A    between atoms: C_22  and  O_65
REMARK   13  A    between atoms: C_24  and  C_25
REMARK   14  A    between atoms: C_27  and  C_28
REMARK   15  A    between atoms: C_34  and  C_35
REMARK   16  A    between atoms: C_36  and  O_62
REMARK   17  A    between atoms: C_42  and  C_43
REMARK   18  A    between atoms: C_44  and  O_59
REMARK   19  A    between atoms: O_62  and  C_63
REMARK   20  A    between atoms: O_65  and  C_66
REMARK   21  A    between atoms: C_72  and  O_73
REMARK   22  A    between atoms: O_73  and  C_74
REMARK                            x       y       z     vdW  Elec       q    Type
REMARK                         _______ _______ _______ _____ _____    ______ ____
ROOT
ATOM      1  C   UNL     1       6.789   3.124   0.000  0.00  0.00    +0.190 C 
ATOM      2  C   UNL     1       5.923   3.624   0.000  0.00  0.00    +0.120 C 
ATOM      3  C   UNL     1       4.957   3.365   0.000  0.00  0.00    +0.148 C 
ATOM      4  C   UNL     1       4.091   3.865   0.000  0.00  0.00    +0.060 C 
ATOM      5  C   UNL     1       3.125   3.607   0.000  0.00  0.00    -0.010 C 
ATOM      6  C   UNL     1       2.866   2.641   0.000  0.00  0.00    -0.038 C 
ATOM      7  C   UNL     1       2.000   2.141   0.000  0.00  0.00    +0.042 C 
ATOM      8  C   UNL     1       3.832   2.382   0.000  0.00  0.00    +0.161 C 
ATOM      9  C   UNL     1       4.332   1.516   0.000  0.00  0.00    +0.201 C 
ATOM     10  C   UNL     1       5.198   2.016   0.000  0.00  0.00    +0.178 C 
ATOM     11  C   UNL     1       6.064   1.516   0.000  0.00  0.00    +0.042 C 
ATOM     12  C   UNL     1       5.671   0.435   0.000  0.00  0.00    +0.020 C 
ATOM     13  C   UNL     1       6.930   2.016   0.000  0.00  0.00    +0.026 C 
ATOM     14  C   UNL     1       7.796   1.516   0.000  0.00  0.00    -0.004 C 
ATOM     15  C   UNL     1       8.662   2.016   0.000  0.00  0.00    +0.016 C 
ATOM     16  C   UNL     1       7.796   0.516   0.000  0.00  0.00    -0.019 C 
ATOM     17  C   UNL     1       6.930   0.016   0.000  0.00  0.00    -0.004 C 
ATOM     18  C   UNL     1       6.930  -0.984   0.000  0.00  0.00    -0.000 C 
ATOM     19  C   UNL     1       7.796  -1.484   0.000  0.00  0.00    +0.000 C 
ATOM     20  C   UNL     1       8.662  -0.984   0.000  0.00  0.00    +0.002 C 
ATOM     21  C   UNL     1       9.528  -1.484   0.000  0.00  0.00    -0.038 C 
ATOM     22  C   UNL     1       9.528  -2.484   0.000  0.00  0.00    +0.042 C 
ATOM     23  C   UNL     1      10.394  -0.984   0.000  0.00  0.00    +0.125 C 
ATOM     24  C   UNL     1      11.260  -1.484   0.000  0.00  0.00    +0.074 C 
ATOM     25  C   UNL     1      12.126  -0.984   0.000  0.00  0.00    +0.125 C 
ATOM     26  C   UNL     1      13.012  -0.486   0.000  0.00  0.00    +0.032 C 
ATOM     27  C   UNL     1      13.016   0.529   0.000  0.00  0.00    +0.015 C 
ATOM     28  C   UNL     1      12.134   1.034   0.000  0.00  0.00    +0.040 C 
ATOM     29  C   UNL     1      12.996   1.540   0.000  0.00  0.00    +0.018 C 
ATOM     30  C   UNL     1      11.260   0.516   0.000  0.00  0.00    +0.244 C 
ATOM     31  C   UNL     1      11.260   1.516   0.000  0.00  0.00    +0.276 C 
ATOM     32  C   UNL     1      10.394   2.016   0.000  0.00  0.00    +0.288 C 
ATOM     33  N   UNL     1      10.394   3.016   0.000  0.00  0.00    -0.282 N 
ATOM     34  C   UNL     1      11.260   3.516   0.000  0.00  0.00    +0.109 C 
ATOM     35  C   UNL     1      11.260   4.516   0.000  0.00  0.00    +0.019 C 
ATOM     36  C   UNL     1      10.394   5.016   0.000  0.00  0.00    +0.004 C 
ATOM     37  C   UNL     1       9.528   4.516   0.000  0.00  0.00    +0.034 C 
ATOM     38  C   UNL     1       9.528   3.516   0.000  0.00  0.00    +0.185 C 
ATOM     39  C   UNL     1       8.662   3.016   0.000  0.00  0.00    +0.328 C 
ATOM     40  O   UNL     1       9.584   2.629   0.000  0.00  0.00    -0.249 OA
ATOM     41  O   UNL     1       7.655   3.624   0.000  0.00  0.00    -0.459 OA
ATOM     42  O   UNL     1       9.528   1.516   0.000  0.00  0.00    -0.267 OA
ATOM     43  O   UNL     1      12.126   2.016   0.000  0.00  0.00    -0.281 OA
ATOM     44  O   UNL     1      12.126   0.016   0.000  0.00  0.00    -0.339 OA
ATOM     45  O   UNL     1       5.698   2.882   0.000  0.00  0.00    -0.293 OA
ATOM     46  C   UNL     1       4.221   4.857   0.000  0.00  0.00    +0.025 C 
ATOM     47  O   UNL     1       4.656   2.412   0.000  0.00  0.00    -0.296 OA
ENDROOT
BRANCH   1  48
ATOM     48  C   UNL     1       6.615   2.139   0.000  0.00  0.00    +0.015 C 
ATOM     49  C   UNL     1       6.957   1.200   0.000  0.00  0.00    +0.015 C 
BRANCH  48  50
ATOM     50  C   UNL     1       5.675   1.797   0.000  0.00  0.00    +0.018 C 
BRANCH  50  54
ATOM     51  C   UNL     1       4.649  -1.022   0.000  0.00  0.00    +0.133 C 
ATOM     52  C   UNL     1       5.634  -0.848   0.000  0.00  0.00    +0.041 C 
ATOM     53  C   UNL     1       5.976   0.092   0.000  0.00  0.00    +0.010 C 
ATOM     54  C   UNL     1       5.333   0.858   0.000  0.00  0.00    -0.020 C 
ATOM     55  C   UNL     1       4.349   0.684   0.000  0.00  0.00    +0.048 C 
ATOM     56  C   UNL     1       4.007  -0.256   0.000  0.00  0.00    +0.133 C 
BRANCH  56  57
ATOM     57  O   UNL     1       3.022  -0.429   0.000  0.00  0.00    -0.371 OA
ATOM     58  C   UNL     1       2.680  -1.369   0.000  0.00  0.00    +0.195 C 
ENDBRANCH  56  57
BRANCH  51  59
ATOM     59  O   UNL     1       4.308  -1.962   0.000  0.00  0.00    -0.365 OA
BRANCH  59  60
ATOM     60  C   UNL     1       4.950  -2.728   0.000  0.00  0.00    +0.188 C 
BRANCH  60  61
ATOM     61  C   UNL     1       4.608  -3.667   0.000  0.00  0.00    +0.184 C 
BRANCH  61  62
ATOM     62  O   UNL     1       5.251  -4.433   0.000  0.00  0.00    -0.393 OA
ATOM     63  H   UNL     1       5.039  -5.016   0.000  0.00  0.00    +0.209 HD
ENDBRANCH  61  62
ENDBRANCH  60  61
ENDBRANCH  59  60
ENDBRANCH  51  59
ENDBRANCH  50  54
ENDBRANCH  48  50
ENDBRANCH   1  48
BRANCH  30  64
ATOM     64  O   UNL     1      10.274   0.684   0.000  0.00  0.00    -0.358 OA
ATOM     65  H   UNL     1      10.378   1.295   0.000  0.00  0.00    +0.213 HD
ENDBRANCH  30  64
BRANCH  23  66
ATOM     66  O   UNL     1      10.220   0.001   0.000  0.00  0.00    -0.369 OA
ATOM     67  C   UNL     1       9.281   0.343   0.000  0.00  0.00    +0.195 C 
ENDBRANCH  23  66
BRANCH   9  68
ATOM     68  O   UNL     1       3.625   0.809   0.000  0.00  0.00    -0.362 OA
ATOM     69  C   UNL     1       2.659   1.067   0.000  0.00  0.00    +0.195 C 
ENDBRANCH   9  68
BRANCH   8  70
ATOM     70  O   UNL     1       4.294   3.269   0.000  0.00  0.00    -0.377 OA
ATOM     71  H   UNL     1       3.688   3.135   0.000  0.00  0.00    +0.211 HD
ENDBRANCH   8  70
TORSDOF 12
