REMARK  Name = 11707110
REMARK  8 active torsions:
REMARK  status: ('A' for Active; 'I' for Inactive)
REMARK    1  A    between atoms: N_7  and  C_12
REMARK    2  A    between atoms: N_8  and  C_21
REMARK    3  A    between atoms: N_9  and  C_26
REMARK    4  A    between atoms: N_10  and  C_19
REMARK    5  A    between atoms: N_10  and  C_27
REMARK    6  A    between atoms: N_11  and  C_28
REMARK    7  A    between atoms: C_20  and  C_23
REMARK    8  A    between atoms: C_36  and  C_37
REMARK                            x       y       z     vdW  Elec       q    Type
REMARK                         _______ _______ _______ _____ _____    ______ ____
ROOT
ATOM      1  O   UNL     1       1.960  -1.225   1.671  0.00  0.00    -0.267 OA
ATOM      2  O   UNL     1      -1.597  -3.503   0.202  0.00  0.00    -0.246 OA
ATOM      3  O   UNL     1      -0.834   3.278  -1.769  0.00  0.00    -0.267 OA
ATOM      4  N   UNL     1       0.393  -2.386   0.439  0.00  0.00    -0.257 N 
ATOM      5  N   UNL     1      -1.565  -1.203  -0.264  0.00  0.00    -0.261 N 
ATOM      6  N   UNL     1       0.740   2.312  -0.366  0.00  0.00    -0.299 N 
ATOM      7  C   UNL     1       1.036  -1.223   0.860  0.00  0.00    +0.268 A 
ATOM      8  C   UNL     1      -0.971  -2.442   0.096  0.00  0.00    +0.337 A 
ATOM      9  C   UNL     1       0.491   0.036   0.253  0.00  0.00    +0.102 A 
ATOM     10  C   UNL     1      -0.802  -0.026  -0.424  0.00  0.00    +0.075 A 
ATOM     11  C   UNL     1       1.235   1.176   0.298  0.00  0.00    +0.120 A 
ATOM     12  C   UNL     1      -1.180   1.011  -1.209  0.00  0.00    +0.039 A 
ATOM     13  C   UNL     1      -0.414   2.300  -1.147  0.00  0.00    +0.257 A 
ATOM     14  C   UNL     1      -2.290   1.028  -2.232  0.00  0.00    +0.051 C 
ATOM     15  C   UNL     1       1.491   3.568  -0.279  0.00  0.00    +0.154 C 
ENDROOT
BRANCH   5  16
ATOM     16  C   UNL     1      -3.016  -1.185  -0.300  0.00  0.00    +0.053 A 
ATOM     17  C   UNL     1      -3.694  -0.053   0.125  0.00  0.00    +0.049 A 
ATOM     18  C   UNL     1      -3.699  -2.301  -0.758  0.00  0.00    +0.026 A 
ATOM     19  C   UNL     1      -5.088  -0.036   0.090  0.00  0.00    +0.035 A 
ATOM     20  C   UNL     1      -5.093  -2.285  -0.793  0.00  0.00    +0.004 A 
ATOM     21  C   UNL     1      -5.787  -1.152  -0.369  0.00  0.00    +0.023 A 
BRANCH  19  23
ATOM     22  O   UNL     1      -4.077   2.595   1.149  0.00  0.00    -0.276 OA
ATOM     23  N   UNL     1      -5.783   1.097   0.514  0.00  0.00    -0.286 N 
ATOM     24  C   UNL     1      -5.259   2.301   1.003  0.00  0.00    +0.214 C 
ATOM     25  C   UNL     1      -6.348   3.283   1.356  0.00  0.00    +0.109 C 
ATOM     26  H   UNL     1      -6.797   1.030   0.458  0.00  0.00    +0.155 HD
ENDBRANCH  19  23
ENDBRANCH   5  16
BRANCH   4  27
ATOM     27  C   UNL     1       1.061  -3.654   0.725  0.00  0.00    +0.095 C 
ATOM     28  C   UNL     1       1.331  -4.609  -0.375  0.00  0.00    +0.027 C 
ATOM     29  C   UNL     1       2.458  -3.869   0.282  0.00  0.00    +0.027 C 
ENDBRANCH   4  27
BRANCH  11  30
ATOM     30  N   UNL     1       2.454   1.241   0.943  0.00  0.00    -0.298 N 
ATOM     31  H   UNL     1       2.444   1.772   1.808  0.00  0.00    +0.154 HD
BRANCH  30  34
ATOM     32  I   UNL     1       8.140   0.091  -1.456  0.00  0.00    -0.044 I 
ATOM     33  F   UNL     1       4.753   1.456   2.498  0.00  0.00    -0.204 F 
ATOM     34  C   UNL     1       3.714   0.989   0.413  0.00  0.00    +0.068 A 
ATOM     35  C   UNL     1       4.866   1.100   1.210  0.00  0.00    +0.145 A 
ATOM     36  C   UNL     1       3.862   0.615  -0.933  0.00  0.00    +0.027 A 
ATOM     37  C   UNL     1       6.129   0.844   0.676  0.00  0.00    +0.054 A 
ATOM     38  C   UNL     1       5.125   0.359  -1.467  0.00  0.00    +0.016 A 
ATOM     39  C   UNL     1       6.259   0.474  -0.662  0.00  0.00    +0.016 A 
ENDBRANCH  30  34
ENDBRANCH  11  30
TORSDOF 5
