REMARK  Name = 
REMARK  1 active torsions:
REMARK  status: ('A' for Active; 'I' for Inactive)
REMARK    1  A    between atoms: C_9  and  C_14
REMARK                            x       y       z     vdW  Elec       q    Type
REMARK                         _______ _______ _______ _____ _____    ______ ____
ROOT
ATOM      1  C   UNL     1      -3.678  -0.993  -0.492  0.00  0.00    +0.001 A 
ATOM      2  C   UNL     1      -3.861  -2.317  -0.492  0.00  0.00    +0.002 A 
ATOM      3  C   UNL     1      -2.806  -3.138  -0.479  0.00  0.00    +0.026 A 
ATOM      4  C   UNL     1      -1.567  -2.634  -0.467  0.00  0.00    +0.053 A 
ATOM      5  C   UNL     1      -1.384  -1.310  -0.467  0.00  0.00    +0.014 A 
ATOM      6  C   UNL     1      -2.440  -0.489  -0.479  0.00  0.00    +0.011 A 
ATOM      7  N   UNL     1      -0.459  -3.246  -0.467  0.00  0.00    -0.311 N 
ATOM      8  C   UNL     1       0.507  -2.434  -0.578  0.00  0.00    +0.207 A 
ATOM      9  C   UNL     1      -0.082  -1.006  -0.465  0.00  0.00    +0.086 A 
ATOM     10  C   UNL     1       0.096  -4.605  -0.394  0.00  0.00    +0.128 C 
ATOM     11  C   UNL     1       1.597  -4.561  -0.139  0.00  0.00    +0.063 C 
ATOM     12  C   UNL     1       2.276  -3.457   0.409  0.00  0.00    +0.232 C 
ATOM     13  O   UNL     1       1.764  -2.900  -0.772  0.00  0.00    -0.477 OA
ENDROOT
BRANCH   9  14
ATOM     14  C   UNL     1       0.530   0.180  -0.388  0.00  0.00    +0.145 A 
ATOM     15  N   UNL     1       1.776   0.408  -0.391  0.00  0.00    -0.338 N 
ATOM     16  C   UNL     1       2.010   1.649  -0.304  0.00  0.00    +0.068 A 
ATOM     17  C   UNL     1       0.872   2.347  -0.236  0.00  0.00    +0.090 A 
ATOM     18  N   UNL     1      -0.130   1.584  -0.276  0.00  0.00    -0.228 NA
ATOM     19  C   UNL     1       3.186   2.284  -0.289  0.00  0.00    +0.043 A 
ATOM     20  C   UNL     1       3.225   3.618  -0.200  0.00  0.00    +0.020 A 
ATOM     21  C   UNL     1       2.087   4.316  -0.137  0.00  0.00    +0.017 A 
ATOM     22  C   UNL     1       0.911   3.681  -0.152  0.00  0.00    +0.031 A 
ATOM     23 BR   UNL     1       4.880   4.510  -0.165  0.00  0.00    -0.050 Br
ATOM     24  H   UNL     1       2.516  -0.334  -0.457  0.00  0.00    +0.167 HD
ENDBRANCH   9  14
TORSDOF 1
