REMARK  Name = 
REMARK  1 active torsions:
REMARK  status: ('A' for Active; 'I' for Inactive)
REMARK    1  A    between atoms: C_9  and  C_11
REMARK                            x       y       z     vdW  Elec       q    Type
REMARK                         _______ _______ _______ _____ _____    ______ ____
ROOT
ATOM      1  C   UNL     1      -3.401   0.037  -0.528  0.00  0.00    +0.001 A 
ATOM      2  C   UNL     1      -3.814  -1.235  -0.528  0.00  0.00    +0.002 A 
ATOM      3  C   UNL     1      -2.919  -2.228  -0.516  0.00  0.00    +0.026 A 
ATOM      4  C   UNL     1      -1.612  -1.950  -0.503  0.00  0.00    +0.053 A 
ATOM      5  C   UNL     1      -1.198  -0.679  -0.503  0.00  0.00    +0.014 A 
ATOM      6  C   UNL     1      -2.093   0.315  -0.516  0.00  0.00    +0.011 A 
ATOM      7  N   UNL     1      -0.628  -2.747  -0.503  0.00  0.00    -0.311 N 
ATOM      8  C   UNL     1       0.465  -2.118  -0.615  0.00  0.00    +0.207 A 
ATOM      9  C   UNL     1       0.137  -0.609  -0.502  0.00  0.00    +0.086 A 
ATOM     10  O   UNL     1       1.621  -2.798  -0.808  0.00  0.00    -0.477 OA
ATOM     11  C   UNL     1      -0.320  -4.183  -0.430  0.00  0.00    +0.128 C 
ATOM     12  C   UNL     1       1.165  -4.404  -0.176  0.00  0.00    +0.063 C 
ATOM     13  C   UNL     1       2.028  -3.436   0.372  0.00  0.00    +0.232 C 
ENDROOT
BRANCH   9  14
ATOM     14  C   UNL     1       0.948   0.451  -0.425  0.00  0.00    +0.146 A 
ATOM     15  N   UNL     1       2.214   0.457  -0.428  0.00  0.00    -0.323 N 
ATOM     16  C   UNL     1       2.663   1.637  -0.341  0.00  0.00    +0.158 A 
ATOM     17  C   UNL     1       1.666   2.525  -0.272  0.00  0.00    +0.108 A 
ATOM     18  N   UNL     1       0.545   1.950  -0.312  0.00  0.00    -0.226 NA
ATOM     19  N   UNL     1       3.860   2.031  -0.326  0.00  0.00    -0.236 NA
ATOM     20  C   UNL     1       4.031   3.197   0.120  0.00  0.00    +0.113 A 
ATOM     21  C   UNL     1       3.208   4.250  -0.173  0.00  0.00    +0.022 A 
ATOM     22  C   UNL     1       1.938   3.831  -0.189  0.00  0.00    +0.033 A 
ATOM     23  H   UNL     1       2.813  -0.404  -0.493  0.00  0.00    +0.169 HD
ENDBRANCH   9  14
TORSDOF 1
