REMARK  Name = 
REMARK  2 active torsions:
REMARK  status: ('A' for Active; 'I' for Inactive)
REMARK    1  A    between atoms: C_9  and  C_14
REMARK    2  A    between atoms: C_20  and  N_23
REMARK                            x       y       z     vdW  Elec       q    Type
REMARK                         _______ _______ _______ _____ _____    ______ ____
ROOT
ATOM      1  C   UNL     1      -3.957  -1.044  -0.492  0.00  0.00    +0.001 A 
ATOM      2  C   UNL     1      -4.140  -2.368  -0.492  0.00  0.00    +0.002 A 
ATOM      3  C   UNL     1      -3.085  -3.189  -0.479  0.00  0.00    +0.026 A 
ATOM      4  C   UNL     1      -1.846  -2.686  -0.467  0.00  0.00    +0.053 A 
ATOM      5  C   UNL     1      -1.663  -1.361  -0.467  0.00  0.00    +0.014 A 
ATOM      6  C   UNL     1      -2.719  -0.540  -0.479  0.00  0.00    +0.011 A 
ATOM      7  N   UNL     1      -0.738  -3.297  -0.467  0.00  0.00    -0.311 N 
ATOM      8  C   UNL     1       0.228  -2.486  -0.578  0.00  0.00    +0.207 A 
ATOM      9  C   UNL     1      -0.361  -1.058  -0.465  0.00  0.00    +0.086 A 
ATOM     10  C   UNL     1      -0.183  -4.656  -0.394  0.00  0.00    +0.128 C 
ATOM     11  C   UNL     1       1.318  -4.613  -0.139  0.00  0.00    +0.063 C 
ATOM     12  C   UNL     1       1.997  -3.508   0.409  0.00  0.00    +0.232 C 
ATOM     13  O   UNL     1       1.485  -2.951  -0.772  0.00  0.00    -0.477 OA
ENDROOT
BRANCH   9  14
ATOM     14  C   UNL     1       0.252   0.128  -0.388  0.00  0.00    +0.145 A 
ATOM     15  N   UNL     1       1.497   0.356  -0.391  0.00  0.00    -0.338 N 
ATOM     16  C   UNL     1       1.731   1.598  -0.304  0.00  0.00    +0.069 A 
ATOM     17  C   UNL     1       0.593   2.296  -0.236  0.00  0.00    +0.090 A 
ATOM     18  N   UNL     1      -0.409   1.533  -0.276  0.00  0.00    -0.228 NA
ATOM     19  C   UNL     1       2.907   2.233  -0.289  0.00  0.00    +0.060 A 
ATOM     20  C   UNL     1       2.946   3.566  -0.200  0.00  0.00    +0.128 A 
ATOM     21  C   UNL     1       1.808   4.265  -0.137  0.00  0.00    +0.035 A 
ATOM     22  C   UNL     1       0.632   3.630  -0.152  0.00  0.00    +0.032 A 
ATOM     23  H   UNL     1       2.237  -0.385  -0.457  0.00  0.00    +0.167 HD
BRANCH  20  24
ATOM     24  N   UNL     1       4.044   4.159  -0.177  0.00  0.00    +0.056 N 
ATOM     25  O   UNL     1       4.082   5.465  -0.090  0.00  0.00    -0.126 OA
ATOM     26  O   UNL     1       5.159   3.474  -0.239  0.00  0.00    -0.126 OA
ENDBRANCH  20  24
ENDBRANCH   9  14
TORSDOF 2
