REMARK  Name = 
REMARK  1 active torsions:
REMARK  status: ('A' for Active; 'I' for Inactive)
REMARK    1  A    between atoms: C_9  and  C_11
REMARK                            x       y       z     vdW  Elec       q    Type
REMARK                         _______ _______ _______ _____ _____    ______ ____
ROOT
ATOM      1  C   UNL     1      -3.673  -0.897  -0.712  0.00  0.00    +0.001 A 
ATOM      2  C   UNL     1      -3.856  -2.222  -0.712  0.00  0.00    +0.002 A 
ATOM      3  C   UNL     1      -2.801  -3.043  -0.700  0.00  0.00    +0.026 A 
ATOM      4  C   UNL     1      -1.562  -2.539  -0.687  0.00  0.00    +0.053 A 
ATOM      5  C   UNL     1      -1.379  -1.215  -0.687  0.00  0.00    +0.014 A 
ATOM      6  C   UNL     1      -2.434  -0.394  -0.700  0.00  0.00    +0.011 A 
ATOM      7  N   UNL     1      -0.454  -3.151  -0.687  0.00  0.00    -0.311 N 
ATOM      8  C   UNL     1       0.514  -2.335  -0.643  0.00  0.00    +0.207 A 
ATOM      9  C   UNL     1      -0.077  -0.911  -0.686  0.00  0.00    +0.086 A 
ATOM     10  O   UNL     1       1.787  -2.797  -0.585  0.00  0.00    -0.477 OA
ATOM     11  C   UNL     1       0.101  -4.511  -0.736  0.00  0.00    +0.125 C 
ATOM     12  C   UNL     1       1.578  -4.505  -0.368  0.00  0.00    +0.025 C 
ATOM     13  C   UNL     1       1.736  -4.099   1.091  0.00  0.00    +0.043 C 
ATOM     14  C   UNL     1       2.244  -2.832   0.740  0.00  0.00    +0.231 C 
ENDROOT
BRANCH   9  15
ATOM     15  C   UNL     1       0.534   0.278  -0.713  0.00  0.00    +0.145 A 
ATOM     16  N   UNL     1       1.778   0.507  -0.749  0.00  0.00    -0.338 N 
ATOM     17  C   UNL     1       2.010   1.751  -0.766  0.00  0.00    +0.068 A 
ATOM     18  C   UNL     1       0.872   2.451  -0.741  0.00  0.00    +0.090 A 
ATOM     19  N   UNL     1      -0.129   1.686  -0.707  0.00  0.00    -0.228 NA
ATOM     20  C   UNL     1       3.185   2.387  -0.816  0.00  0.00    +0.043 A 
ATOM     21  C   UNL     1       3.222   3.724  -0.837  0.00  0.00    +0.020 A 
ATOM     22  C   UNL     1       2.083   4.424  -0.817  0.00  0.00    +0.017 A 
ATOM     23  C   UNL     1       0.908   3.788  -0.767  0.00  0.00    +0.031 A 
ATOM     24 BR   UNL     1       4.875   4.619  -0.894  0.00  0.00    -0.050 Br
ATOM     25  H   UNL     1       2.519  -0.237  -0.762  0.00  0.00    +0.167 HD
ENDBRANCH   9  15
TORSDOF 1
