REMARK  Name = 
REMARK  3 active torsions:
REMARK  status: ('A' for Active; 'I' for Inactive)
REMARK    1  A    between atoms: C_9  and  C_14
REMARK    2  A    between atoms: C_20  and  C_23
REMARK    3  A    between atoms: C_21  and  C_24
REMARK                            x       y       z     vdW  Elec       q    Type
REMARK                         _______ _______ _______ _____ _____    ______ ____
ROOT
ATOM      1  C   UNL     1      -3.659  -1.386  -0.492  0.00  0.00    +0.001 A 
ATOM      2  C   UNL     1      -3.842  -2.710  -0.492  0.00  0.00    +0.002 A 
ATOM      3  C   UNL     1      -2.786  -3.531  -0.479  0.00  0.00    +0.026 A 
ATOM      4  C   UNL     1      -1.548  -3.028  -0.467  0.00  0.00    +0.053 A 
ATOM      5  C   UNL     1      -1.365  -1.703  -0.467  0.00  0.00    +0.014 A 
ATOM      6  C   UNL     1      -2.420  -0.882  -0.479  0.00  0.00    +0.011 A 
ATOM      7  N   UNL     1      -0.439  -3.639  -0.467  0.00  0.00    -0.311 N 
ATOM      8  C   UNL     1       0.526  -2.828  -0.578  0.00  0.00    +0.207 A 
ATOM      9  C   UNL     1      -0.063  -1.400  -0.465  0.00  0.00    +0.086 A 
ATOM     10  C   UNL     1       0.116  -4.998  -0.394  0.00  0.00    +0.128 C 
ATOM     11  C   UNL     1       1.617  -4.955  -0.139  0.00  0.00    +0.063 C 
ATOM     12  C   UNL     1       2.296  -3.850   0.409  0.00  0.00    +0.232 C 
ATOM     13  O   UNL     1       1.784  -3.293  -0.772  0.00  0.00    -0.477 OA
ENDROOT
BRANCH   9  14
ATOM     14  C   UNL     1       0.550  -0.214  -0.388  0.00  0.00    +0.145 A 
ATOM     15  N   UNL     1      -0.078   0.875  -0.299  0.00  0.00    -0.228 NA
ATOM     16  C   UNL     1       0.830   1.747  -0.250  0.00  0.00    +0.090 A 
ATOM     17  C   UNL     1       2.040   1.183  -0.310  0.00  0.00    +0.067 A 
ATOM     18  N   UNL     1       1.950  -0.076  -0.400  0.00  0.00    -0.338 N 
ATOM     19  C   UNL     1       0.716   3.075  -0.139  0.00  0.00    +0.033 A 
ATOM     20  C   UNL     1       1.812   3.838  -0.093  0.00  0.00    -0.045 A 
ATOM     21  C   UNL     1       3.023   3.274  -0.148  0.00  0.00    -0.045 A 
ATOM     22  C   UNL     1       3.137   1.946  -0.259  0.00  0.00    +0.031 A 
ATOM     23  C   UNL     1       1.685   5.326   0.020  0.00  0.00    +0.044 C 
ATOM     24  C   UNL     1       4.251   4.128  -0.085  0.00  0.00    +0.044 C 
ATOM     25  H   UNL     1       2.701  -0.807  -0.465  0.00  0.00    +0.167 HD
ENDBRANCH   9  14
TORSDOF 1
