REMARK  Name = 
REMARK  1 active torsions:
REMARK  status: ('A' for Active; 'I' for Inactive)
REMARK    1  A    between atoms: C_9  and  C_11
REMARK                            x       y       z     vdW  Elec       q    Type
REMARK                         _______ _______ _______ _____ _____    ______ ____
ROOT
ATOM      1  C   UNL     1      -3.292  -0.855  -0.712  0.00  0.00    +0.001 A 
ATOM      2  C   UNL     1      -3.475  -2.179  -0.712  0.00  0.00    +0.002 A 
ATOM      3  C   UNL     1      -2.420  -3.000  -0.700  0.00  0.00    +0.026 A 
ATOM      4  C   UNL     1      -1.181  -2.497  -0.687  0.00  0.00    +0.053 A 
ATOM      5  C   UNL     1      -0.998  -1.172  -0.687  0.00  0.00    +0.014 A 
ATOM      6  C   UNL     1      -2.054  -0.352  -0.700  0.00  0.00    +0.011 A 
ATOM      7  N   UNL     1      -0.073  -3.108  -0.687  0.00  0.00    -0.311 N 
ATOM      8  C   UNL     1       0.895  -2.293  -0.643  0.00  0.00    +0.207 A 
ATOM      9  C   UNL     1       0.304  -0.869  -0.686  0.00  0.00    +0.086 A 
ATOM     10  O   UNL     1       2.167  -2.755  -0.585  0.00  0.00    -0.477 OA
ATOM     11  C   UNL     1       0.481  -4.469  -0.736  0.00  0.00    +0.125 C 
ATOM     12  C   UNL     1       1.959  -4.463  -0.368  0.00  0.00    +0.025 C 
ATOM     13  C   UNL     1       2.117  -4.056   1.091  0.00  0.00    +0.043 C 
ATOM     14  C   UNL     1       2.624  -2.789   0.740  0.00  0.00    +0.231 C 
ENDROOT
BRANCH   9  15
ATOM     15  C   UNL     1       0.914   0.320  -0.713  0.00  0.00    +0.145 A 
ATOM     16  N   UNL     1       0.285   1.412  -0.708  0.00  0.00    -0.228 NA
ATOM     17  C   UNL     1       1.191   2.287  -0.739  0.00  0.00    +0.089 A 
ATOM     18  C   UNL     1       2.402   1.721  -0.764  0.00  0.00    +0.066 A 
ATOM     19  N   UNL     1       2.314   0.458  -0.749  0.00  0.00    -0.338 N 
ATOM     20  C   UNL     1       1.075   3.619  -0.737  0.00  0.00    +0.030 A 
ATOM     21  C   UNL     1       2.170   4.385  -0.765  0.00  0.00    +0.002 A 
ATOM     22  C   UNL     1       3.382   3.820  -0.785  0.00  0.00    +0.002 A 
ATOM     23  C   UNL     1       3.498   2.487  -0.787  0.00  0.00    +0.028 A 
ATOM     24  H   UNL     1       3.067  -0.274  -0.761  0.00  0.00    +0.167 HD
ENDBRANCH   9  15
TORSDOF 1
