REMARK  Name = 
REMARK  3 active torsions:
REMARK  status: ('A' for Active; 'I' for Inactive)
REMARK    1  A    between atoms: C_9  and  C_14
REMARK    2  A    between atoms: C_20  and  O_23
REMARK    3  A    between atoms: O_23  and  C_24
REMARK                            x       y       z     vdW  Elec       q    Type
REMARK                         _______ _______ _______ _____ _____    ______ ____
ROOT
ATOM      1  C   UNL     1      -3.850  -1.362  -0.492  0.00  0.00    +0.001 A 
ATOM      2  C   UNL     1      -4.033  -2.687  -0.492  0.00  0.00    +0.002 A 
ATOM      3  C   UNL     1      -2.978  -3.507  -0.479  0.00  0.00    +0.026 A 
ATOM      4  C   UNL     1      -1.740  -3.004  -0.467  0.00  0.00    +0.053 A 
ATOM      5  C   UNL     1      -1.556  -1.679  -0.467  0.00  0.00    +0.014 A 
ATOM      6  C   UNL     1      -2.612  -0.859  -0.479  0.00  0.00    +0.011 A 
ATOM      7  N   UNL     1      -0.631  -3.615  -0.467  0.00  0.00    -0.311 N 
ATOM      8  C   UNL     1       0.335  -2.804  -0.578  0.00  0.00    +0.207 A 
ATOM      9  C   UNL     1      -0.254  -1.376  -0.465  0.00  0.00    +0.086 A 
ATOM     10  C   UNL     1      -0.076  -4.974  -0.394  0.00  0.00    +0.128 C 
ATOM     11  C   UNL     1       1.425  -4.931  -0.139  0.00  0.00    +0.063 C 
ATOM     12  C   UNL     1       2.104  -3.826   0.409  0.00  0.00    +0.232 C 
ATOM     13  O   UNL     1       1.592  -3.270  -0.772  0.00  0.00    -0.477 OA
ENDROOT
BRANCH   9  14
ATOM     14  C   UNL     1       0.358  -0.190  -0.388  0.00  0.00    +0.145 A 
ATOM     15  N   UNL     1       1.604   0.038  -0.391  0.00  0.00    -0.338 N 
ATOM     16  C   UNL     1       1.838   1.279  -0.304  0.00  0.00    +0.070 A 
ATOM     17  C   UNL     1       0.700   1.978  -0.236  0.00  0.00    +0.090 A 
ATOM     18  N   UNL     1      -0.302   1.214  -0.276  0.00  0.00    -0.228 NA
ATOM     19  C   UNL     1       3.014   1.914  -0.289  0.00  0.00    +0.073 A 
ATOM     20  C   UNL     1       3.053   3.248  -0.200  0.00  0.00    +0.122 A 
ATOM     21  C   UNL     1       1.915   3.947  -0.137  0.00  0.00    +0.048 A 
ATOM     22  C   UNL     1       0.739   3.312  -0.152  0.00  0.00    +0.033 A 
ATOM     23  H   UNL     1       2.344  -0.704  -0.457  0.00  0.00    +0.167 HD
BRANCH  20  24
ATOM     24  O   UNL     1       4.245   3.891  -0.175  0.00  0.00    -0.495 OA
ATOM     25  C   UNL     1       4.061   5.278  -0.079  0.00  0.00    +0.277 C 
ENDBRANCH  20  24
ENDBRANCH   9  14
TORSDOF 2
