REMARK  Name = 
REMARK  2 active torsions:
REMARK  status: ('A' for Active; 'I' for Inactive)
REMARK    1  A    between atoms: C_9  and  C_11
REMARK    2  A    between atoms: N_12  and  C_28
REMARK                            x       y       z     vdW  Elec       q    Type
REMARK                         _______ _______ _______ _____ _____    ______ ____
ROOT
ATOM      1  C   UNL     1      -3.952   0.015  -0.514  0.00  0.00    +0.001 A 
ATOM      2  C   UNL     1      -4.365  -1.257  -0.514  0.00  0.00    +0.002 A 
ATOM      3  C   UNL     1      -3.470  -2.250  -0.502  0.00  0.00    +0.026 A 
ATOM      4  C   UNL     1      -2.163  -1.972  -0.489  0.00  0.00    +0.053 A 
ATOM      5  C   UNL     1      -1.749  -0.701  -0.489  0.00  0.00    +0.014 A 
ATOM      6  C   UNL     1      -2.644   0.293  -0.502  0.00  0.00    +0.011 A 
ATOM      7  N   UNL     1      -1.179  -2.769  -0.489  0.00  0.00    -0.311 N 
ATOM      8  C   UNL     1      -0.086  -2.140  -0.601  0.00  0.00    +0.207 A 
ATOM      9  C   UNL     1      -0.414  -0.631  -0.488  0.00  0.00    +0.086 A 
ATOM     10  O   UNL     1       1.071  -2.820  -0.794  0.00  0.00    -0.477 OA
ATOM     11  C   UNL     1      -0.871  -4.205  -0.416  0.00  0.00    +0.128 C 
ATOM     12  C   UNL     1       0.614  -4.426  -0.162  0.00  0.00    +0.063 C 
ATOM     13  C   UNL     1       1.477  -3.458   0.386  0.00  0.00    +0.232 C 
ENDROOT
BRANCH   9  14
ATOM     14  C   UNL     1       0.397   0.429  -0.411  0.00  0.00    +0.147 A 
ATOM     15  N   UNL     1       1.663   0.434  -0.414  0.00  0.00    -0.327 N 
ATOM     16  C   UNL     1       2.112   1.615  -0.327  0.00  0.00    +0.070 A 
ATOM     17  C   UNL     1       1.115   2.503  -0.259  0.00  0.00    +0.090 A 
ATOM     18  N   UNL     1      -0.005   1.928  -0.298  0.00  0.00    -0.227 NA
ATOM     19  C   UNL     1       3.382   2.034  -0.311  0.00  0.00    +0.043 A 
ATOM     20  C   UNL     1       3.654   3.340  -0.223  0.00  0.00    +0.020 A 
ATOM     21  C   UNL     1       2.657   4.228  -0.159  0.00  0.00    +0.017 A 
ATOM     22  C   UNL     1       1.387   3.809  -0.174  0.00  0.00    +0.031 A 
ATOM     23 BR   UNL     1       5.441   3.927  -0.187  0.00  0.00    -0.050 Br
ATOM     24  C   UNL     1       2.501  -0.770  -0.505  0.00  0.00    +0.151 C 
ENDBRANCH   9  14
TORSDOF 1
