REMARK  Name = 
REMARK  2 active torsions:
REMARK  status: ('A' for Active; 'I' for Inactive)
REMARK    1  A    between atoms: C_9  and  C_11
REMARK    2  A    between atoms: C_18  and  C_24
REMARK                            x       y       z     vdW  Elec       q    Type
REMARK                         _______ _______ _______ _____ _____    ______ ____
ROOT
ATOM      1  C   UNL     1      -3.952  -0.442  -0.528  0.00  0.00    +0.001 A 
ATOM      2  C   UNL     1      -4.365  -1.713  -0.528  0.00  0.00    +0.002 A 
ATOM      3  C   UNL     1      -3.470  -2.707  -0.516  0.00  0.00    +0.026 A 
ATOM      4  C   UNL     1      -2.163  -2.429  -0.503  0.00  0.00    +0.053 A 
ATOM      5  C   UNL     1      -1.749  -1.157  -0.503  0.00  0.00    +0.014 A 
ATOM      6  C   UNL     1      -2.644  -0.164  -0.516  0.00  0.00    +0.011 A 
ATOM      7  N   UNL     1      -1.179  -3.225  -0.503  0.00  0.00    -0.311 N 
ATOM      8  C   UNL     1      -0.086  -2.596  -0.615  0.00  0.00    +0.207 A 
ATOM      9  C   UNL     1      -0.414  -1.087  -0.502  0.00  0.00    +0.086 A 
ATOM     10  O   UNL     1       1.071  -3.276  -0.808  0.00  0.00    -0.477 OA
ATOM     11  C   UNL     1      -0.871  -4.661  -0.430  0.00  0.00    +0.128 C 
ATOM     12  C   UNL     1       0.614  -4.882  -0.176  0.00  0.00    +0.063 C 
ATOM     13  C   UNL     1       1.477  -3.914   0.372  0.00  0.00    +0.232 C 
ENDROOT
BRANCH   9  14
ATOM     14  C   UNL     1       0.397  -0.028  -0.425  0.00  0.00    +0.145 A 
ATOM     15  N   UNL     1       1.663  -0.022  -0.428  0.00  0.00    -0.338 N 
ATOM     16  C   UNL     1       2.112   1.159  -0.341  0.00  0.00    +0.068 A 
ATOM     17  C   UNL     1       1.115   2.046  -0.272  0.00  0.00    +0.090 A 
ATOM     18  N   UNL     1      -0.005   1.471  -0.312  0.00  0.00    -0.228 NA
ATOM     19  C   UNL     1       3.382   1.577  -0.325  0.00  0.00    +0.043 A 
ATOM     20  C   UNL     1       3.654   2.883  -0.237  0.00  0.00    +0.023 A 
ATOM     21  C   UNL     1       2.657   3.771  -0.173  0.00  0.00    -0.034 A 
ATOM     22  C   UNL     1       1.387   3.353  -0.188  0.00  0.00    +0.034 A 
ATOM     23 BR   UNL     1       5.441   3.471  -0.201  0.00  0.00    -0.050 Br
ATOM     24  C   UNL     1       2.962   5.234  -0.084  0.00  0.00    +0.045 C 
ATOM     25  H   UNL     1       2.262  -0.882  -0.493  0.00  0.00    +0.167 HD
ENDBRANCH   9  14
TORSDOF 1
