REMARK  Name = 
REMARK  3 active torsions:
REMARK  status: ('A' for Active; 'I' for Inactive)
REMARK    1  A    between atoms: C_9  and  C_11
REMARK    2  A    between atoms: C_17  and  C_23
REMARK    3  A    between atoms: C_23  and  O_39
REMARK                            x       y       z     vdW  Elec       q    Type
REMARK                         _______ _______ _______ _____ _____    ______ ____
ROOT
ATOM      1  C   UNL     1       0.150   0.429  -0.425  0.00  0.00    +0.145 A 
ATOM      2  N   UNL     1       1.416   0.434  -0.428  0.00  0.00    -0.338 N 
ATOM      3  C   UNL     1       1.865   1.615  -0.341  0.00  0.00    +0.067 A 
ATOM      4  C   UNL     1       0.867   2.503  -0.272  0.00  0.00    +0.089 A 
ATOM      5  N   UNL     1      -0.253   1.928  -0.312  0.00  0.00    -0.228 NA
ATOM      6  C   UNL     1       3.135   2.034  -0.326  0.00  0.00    +0.042 A 
ATOM      7  C   UNL     1       3.407   3.340  -0.237  0.00  0.00    +0.061 A 
ATOM      8  C   UNL     1       2.410   4.228  -0.173  0.00  0.00    +0.017 A 
ATOM      9  C   UNL     1       1.140   3.809  -0.189  0.00  0.00    +0.031 A 
ATOM     10  H   UNL     1       2.014  -0.426  -0.493  0.00  0.00    +0.167 HD
ENDROOT
BRANCH   1  19
ATOM     11  C   UNL     1      -4.199   0.015  -0.528  0.00  0.00    +0.001 A 
ATOM     12  C   UNL     1      -4.612  -1.257  -0.528  0.00  0.00    +0.002 A 
ATOM     13  C   UNL     1      -3.718  -2.250  -0.516  0.00  0.00    +0.026 A 
ATOM     14  C   UNL     1      -2.410  -1.972  -0.503  0.00  0.00    +0.053 A 
ATOM     15  C   UNL     1      -1.997  -0.701  -0.503  0.00  0.00    +0.014 A 
ATOM     16  C   UNL     1      -2.891   0.293  -0.516  0.00  0.00    +0.011 A 
ATOM     17  N   UNL     1      -1.426  -2.769  -0.503  0.00  0.00    -0.311 N 
ATOM     18  C   UNL     1      -0.333  -2.140  -0.615  0.00  0.00    +0.207 A 
ATOM     19  C   UNL     1      -0.662  -0.631  -0.502  0.00  0.00    +0.086 A 
ATOM     20  O   UNL     1       0.823  -2.820  -0.808  0.00  0.00    -0.477 OA
ATOM     21  C   UNL     1      -1.119  -4.205  -0.430  0.00  0.00    +0.128 C 
ATOM     22  C   UNL     1       0.367  -4.426  -0.176  0.00  0.00    +0.063 C 
ATOM     23  C   UNL     1       1.230  -3.458   0.372  0.00  0.00    +0.232 C 
ENDBRANCH   1  19
BRANCH   7  24
ATOM     24  C   UNL     1       4.690   3.762  -0.211  0.00  0.00    +0.337 C 
ATOM     25  O   UNL     1       4.936   4.942  -0.131  0.00  0.00    -0.245 OA
BRANCH  24  26
ATOM     26  O   UNL     1       5.688   2.873  -0.275  0.00  0.00    -0.477 OA
ATOM     27  H   UNL     1       5.267   1.999  -0.334  0.00  0.00    +0.295 HD
ENDBRANCH  24  26
ENDBRANCH   7  24
TORSDOF 3
