REMARK  Name = 
REMARK  1 active torsions:
REMARK  status: ('A' for Active; 'I' for Inactive)
REMARK    1  A    between atoms: C_9  and  C_14
REMARK                            x       y       z     vdW  Elec       q    Type
REMARK                         _______ _______ _______ _____ _____    ______ ____
ROOT
ATOM      1  C   UNL     1      -3.295  -0.948  -0.492  0.00  0.00    +0.001 A 
ATOM      2  C   UNL     1      -3.478  -2.272  -0.492  0.00  0.00    +0.002 A 
ATOM      3  C   UNL     1      -2.423  -3.093  -0.479  0.00  0.00    +0.026 A 
ATOM      4  C   UNL     1      -1.184  -2.590  -0.467  0.00  0.00    +0.053 A 
ATOM      5  C   UNL     1      -1.001  -1.265  -0.467  0.00  0.00    +0.014 A 
ATOM      6  C   UNL     1      -2.056  -0.444  -0.479  0.00  0.00    +0.011 A 
ATOM      7  N   UNL     1      -0.075  -3.201  -0.467  0.00  0.00    -0.311 N 
ATOM      8  C   UNL     1       0.890  -2.390  -0.578  0.00  0.00    +0.207 A 
ATOM      9  C   UNL     1       0.301  -0.962  -0.465  0.00  0.00    +0.086 A 
ATOM     10  C   UNL     1       0.479  -4.560  -0.394  0.00  0.00    +0.128 C 
ATOM     11  C   UNL     1       1.980  -4.517  -0.139  0.00  0.00    +0.063 C 
ATOM     12  C   UNL     1       2.660  -3.412   0.409  0.00  0.00    +0.232 C 
ATOM     13  O   UNL     1       2.148  -2.856  -0.772  0.00  0.00    -0.477 OA
ENDROOT
BRANCH   9  14
ATOM     14  C   UNL     1       0.914   0.224  -0.388  0.00  0.00    +0.145 A 
ATOM     15  N   UNL     1       0.286   1.313  -0.299  0.00  0.00    -0.228 NA
ATOM     16  C   UNL     1       1.194   2.185  -0.250  0.00  0.00    +0.089 A 
ATOM     17  C   UNL     1       2.404   1.621  -0.310  0.00  0.00    +0.066 A 
ATOM     18  N   UNL     1       2.314   0.361  -0.400  0.00  0.00    -0.338 N 
ATOM     19  C   UNL     1       1.080   3.513  -0.139  0.00  0.00    +0.030 A 
ATOM     20  C   UNL     1       2.176   4.276  -0.093  0.00  0.00    +0.002 A 
ATOM     21  C   UNL     1       3.387   3.712  -0.148  0.00  0.00    +0.002 A 
ATOM     22  C   UNL     1       3.501   2.384  -0.259  0.00  0.00    +0.028 A 
ATOM     23  H   UNL     1       3.065  -0.369  -0.465  0.00  0.00    +0.167 HD
ENDBRANCH   9  14
TORSDOF 1
