REMARK  Name = 
REMARK  2 active torsions:
REMARK  status: ('A' for Active; 'I' for Inactive)
REMARK    1  A    between atoms: C_9  and  C_11
REMARK    2  A    between atoms: C_17  and  C_24
REMARK                            x       y       z     vdW  Elec       q    Type
REMARK                         _______ _______ _______ _____ _____    ______ ____
ROOT
ATOM      1  C   UNL     1      -3.918  -0.897  -0.712  0.00  0.00    +0.001 A 
ATOM      2  C   UNL     1      -4.101  -2.221  -0.712  0.00  0.00    +0.002 A 
ATOM      3  C   UNL     1      -3.046  -3.042  -0.700  0.00  0.00    +0.026 A 
ATOM      4  C   UNL     1      -1.807  -2.538  -0.687  0.00  0.00    +0.053 A 
ATOM      5  C   UNL     1      -1.624  -1.214  -0.687  0.00  0.00    +0.014 A 
ATOM      6  C   UNL     1      -2.679  -0.393  -0.700  0.00  0.00    +0.011 A 
ATOM      7  N   UNL     1      -0.699  -3.150  -0.687  0.00  0.00    -0.311 N 
ATOM      8  C   UNL     1       0.269  -2.335  -0.643  0.00  0.00    +0.207 A 
ATOM      9  C   UNL     1      -0.322  -0.910  -0.686  0.00  0.00    +0.086 A 
ATOM     10  O   UNL     1       1.542  -2.796  -0.585  0.00  0.00    -0.477 OA
ATOM     11  C   UNL     1      -0.144  -4.510  -0.736  0.00  0.00    +0.125 C 
ATOM     12  C   UNL     1       1.333  -4.504  -0.368  0.00  0.00    +0.025 C 
ATOM     13  C   UNL     1       1.491  -4.098   1.091  0.00  0.00    +0.043 C 
ATOM     14  C   UNL     1       1.998  -2.831   0.740  0.00  0.00    +0.231 C 
ENDROOT
BRANCH   9  15
ATOM     15  C   UNL     1       0.288   0.279  -0.713  0.00  0.00    +0.145 A 
ATOM     16  N   UNL     1       1.534   0.508  -0.709  0.00  0.00    -0.338 N 
ATOM     17  C   UNL     1       1.766   1.752  -0.741  0.00  0.00    +0.067 A 
ATOM     18  C   UNL     1       0.626   2.452  -0.768  0.00  0.00    +0.089 A 
ATOM     19  N   UNL     1      -0.374   1.686  -0.756  0.00  0.00    -0.228 NA
ATOM     20  C   UNL     1       2.941   2.389  -0.761  0.00  0.00    +0.031 A 
ATOM     21  C   UNL     1       2.978   3.725  -0.805  0.00  0.00    -0.048 A 
ATOM     22  C   UNL     1       1.838   4.424  -0.837  0.00  0.00    +0.005 A 
ATOM     23  C   UNL     1       0.663   3.787  -0.817  0.00  0.00    +0.030 A 
ATOM     24  C   UNL     1       4.294   4.438  -0.817  0.00  0.00    +0.044 C 
ATOM     25  H   UNL     1       2.275  -0.234  -0.684  0.00  0.00    +0.167 HD
ENDBRANCH   9  15
TORSDOF 1
