REMARK  Name = 
REMARK  1 active torsions:
REMARK  status: ('A' for Active; 'I' for Inactive)
REMARK    1  A    between atoms: C_9  and  C_14
REMARK                            x       y       z     vdW  Elec       q    Type
REMARK                         _______ _______ _______ _____ _____    ______ ____
ROOT
ATOM      1  C   UNL     1      -3.445  -1.256  -0.492  0.00  0.00    +0.001 A 
ATOM      2  C   UNL     1      -3.628  -2.580  -0.492  0.00  0.00    +0.002 A 
ATOM      3  C   UNL     1      -2.573  -3.401  -0.479  0.00  0.00    +0.026 A 
ATOM      4  C   UNL     1      -1.334  -2.897  -0.467  0.00  0.00    +0.053 A 
ATOM      5  C   UNL     1      -1.151  -1.573  -0.467  0.00  0.00    +0.014 A 
ATOM      6  C   UNL     1      -2.206  -0.752  -0.479  0.00  0.00    +0.011 A 
ATOM      7  N   UNL     1      -0.225  -3.508  -0.467  0.00  0.00    -0.311 N 
ATOM      8  C   UNL     1       0.740  -2.697  -0.578  0.00  0.00    +0.207 A 
ATOM      9  C   UNL     1       0.151  -1.269  -0.465  0.00  0.00    +0.086 A 
ATOM     10  C   UNL     1       0.330  -4.868  -0.394  0.00  0.00    +0.128 C 
ATOM     11  C   UNL     1       1.831  -4.824  -0.139  0.00  0.00    +0.063 C 
ATOM     12  C   UNL     1       2.510  -3.719   0.409  0.00  0.00    +0.232 C 
ATOM     13  O   UNL     1       1.998  -3.163  -0.772  0.00  0.00    -0.477 OA
ENDROOT
BRANCH   9  14
ATOM     14  C   UNL     1       0.764  -0.083  -0.388  0.00  0.00    +0.145 A 
ATOM     15  N   UNL     1       0.136   1.006  -0.299  0.00  0.00    -0.227 NA
ATOM     16  C   UNL     1       1.044   1.878  -0.250  0.00  0.00    +0.091 A 
ATOM     17  C   UNL     1       2.254   1.314  -0.310  0.00  0.00    +0.068 A 
ATOM     18  N   UNL     1       2.164   0.054  -0.400  0.00  0.00    -0.338 N 
ATOM     19  C   UNL     1       0.930   3.205  -0.139  0.00  0.00    +0.051 A 
ATOM     20  C   UNL     1       2.026   3.969  -0.093  0.00  0.00    +0.061 A 
ATOM     21  C   UNL     1       3.237   3.404  -0.148  0.00  0.00    +0.061 A 
ATOM     22  C   UNL     1       3.351   2.077  -0.259  0.00  0.00    +0.049 A 
ATOM     23 CL   UNL     1       1.880   5.677   0.037  0.00  0.00    -0.082 Cl
ATOM     24 CL   UNL     1       4.647   4.385  -0.076  0.00  0.00    -0.082 Cl
ATOM     25  H   UNL     1       2.915  -0.676  -0.465  0.00  0.00    +0.167 HD
ENDBRANCH   9  14
TORSDOF 1
