REMARK  Name = Fragment
REMARK  4 active torsions:
REMARK  status: ('A' for Active; 'I' for Inactive)
REMARK    1  A    between atoms: N_7  and  C_20
REMARK    2  A    between atoms: C_10  and  C_11
REMARK    3  A    between atoms: N_13  and  C_29
REMARK    4  A    between atoms: C_23  and  C_29
REMARK                            x       y       z     vdW  Elec       q    Type
REMARK                         _______ _______ _______ _____ _____    ______ ____
ROOT
ATOM      1  C   UNL     1       0.663   0.420  -0.615  0.00  0.00    +0.003 A 
ATOM      2  C   UNL     1       1.797   0.704   0.117  0.00  0.00    +0.096 A 
ATOM      3  N   UNL     1       2.739  -0.248  -0.182  0.00  0.00    -0.327 N 
ATOM      4  C   UNL     1       2.230  -1.135  -1.091  0.00  0.00    +0.142 A 
ATOM      5  C   UNL     1       0.928  -0.745  -1.385  0.00  0.00    +0.027 A 
ATOM      6  N   UNL     1       2.905  -2.187  -1.589  0.00  0.00    -0.236 NA
ATOM      7  C   UNL     1       2.173  -2.906  -2.471  0.00  0.00    +0.128 A 
ATOM      8  C   UNL     1       0.866  -2.633  -2.856  0.00  0.00    +0.037 A 
ATOM      9  C   UNL     1       0.214  -1.527  -2.307  0.00  0.00    +0.029 A 
ATOM     10 BR   UNL     1      -0.013  -3.737  -4.099  0.00  0.00    -0.049 Br
ENDROOT
BRANCH   1  20
ATOM     11  C   UNL     1      -4.620   2.504  -0.588  0.00  0.00    +0.020 A 
ATOM     12  C   UNL     1      -5.310   1.451  -0.588  0.00  0.00    +0.113 A 
ATOM     13  N   UNL     1      -5.027   0.223  -0.588  0.00  0.00    -0.239 NA
ATOM     14  C   UNL     1      -3.795  -0.040  -0.588  0.00  0.00    +0.135 A 
ATOM     15  C   UNL     1      -2.900   0.953  -0.588  0.00  0.00    +0.027 A 
ATOM     16  C   UNL     1      -3.312   2.225  -0.588  0.00  0.00    +0.013 A 
ATOM     17  N   UNL     1      -3.221  -1.168  -0.598  0.00  0.00    -0.255 N 
ATOM     18  C   UNL     1      -1.962  -1.037  -0.606  0.00  0.00    +0.252 C 
ATOM     19  C   UNL     1      -1.652   0.473  -0.599  0.00  0.00    +0.048 C 
ATOM     20  C   UNL     1      -0.479   1.115  -0.603  0.00  0.00    +0.023 C 
ATOM     21  C   UNL     1      -3.924  -2.459  -0.602  0.00  0.00    +0.140 C 
ATOM     22  O   UNL     1      -1.151  -1.932  -0.617  0.00  0.00    -0.270 OA
ENDBRANCH   1  20
BRANCH   3  23
ATOM     23  C   UNL     1       4.093  -0.306   0.388  0.00  0.00    +0.158 C 
BRANCH  23  24
ATOM     24  C   UNL     1       4.282   0.831   1.343  0.00  0.00    -0.028 A 
ATOM     25  C   UNL     1       5.364   1.698   1.190  0.00  0.00    +0.005 A 
ATOM     26  C   UNL     1       5.540   2.757   2.080  0.00  0.00    +0.000 A 
ATOM     27  C   UNL     1       4.634   2.950   3.123  0.00  0.00    +0.000 A 
ATOM     28  C   UNL     1       3.552   2.083   3.276  0.00  0.00    +0.000 A 
ATOM     29  C   UNL     1       3.376   1.023   2.387  0.00  0.00    +0.005 A 
ENDBRANCH  23  24
ENDBRANCH   3  23
TORSDOF 3
