REMARK  Name = Fragment
REMARK  3 active torsions:
REMARK  status: ('A' for Active; 'I' for Inactive)
REMARK    1  A    between atoms: N_7  and  C_20
REMARK    2  A    between atoms: C_10  and  C_11
REMARK    3  A    between atoms: N_13  and  C_22
REMARK                            x       y       z     vdW  Elec       q    Type
REMARK                         _______ _______ _______ _____ _____    ______ ____
ROOT
ATOM      1  C   UNL     1      -3.845   2.636   0.913  0.00  0.00    +0.020 A 
ATOM      2  C   UNL     1      -4.535   1.583   0.913  0.00  0.00    +0.113 A 
ATOM      3  N   UNL     1      -4.253   0.355   0.913  0.00  0.00    -0.239 NA
ATOM      4  C   UNL     1      -3.021   0.092   0.913  0.00  0.00    +0.135 A 
ATOM      5  C   UNL     1      -2.125   1.085   0.913  0.00  0.00    +0.027 A 
ATOM      6  C   UNL     1      -2.537   2.357   0.913  0.00  0.00    +0.013 A 
ATOM      7  N   UNL     1      -2.447  -1.036   0.902  0.00  0.00    -0.255 N 
ATOM      8  C   UNL     1      -1.188  -0.905   0.894  0.00  0.00    +0.252 C 
ATOM      9  C   UNL     1      -0.877   0.605   0.901  0.00  0.00    +0.048 C 
ATOM     10  C   UNL     1       0.296   1.247   0.897  0.00  0.00    +0.023 C 
ATOM     11  C   UNL     1      -3.149  -2.328   0.899  0.00  0.00    +0.140 C 
ATOM     12  O   UNL     1      -0.377  -1.800   0.883  0.00  0.00    -0.270 OA
ENDROOT
BRANCH  10  13
ATOM     13  C   UNL     1       1.438   0.552   0.885  0.00  0.00    +0.003 A 
ATOM     14  C   UNL     1       2.572   0.836   1.618  0.00  0.00    +0.096 A 
ATOM     15  N   UNL     1       3.514  -0.116   1.318  0.00  0.00    -0.334 N 
ATOM     16  C   UNL     1       3.005  -1.003   0.409  0.00  0.00    +0.141 A 
ATOM     17  C   UNL     1       1.703  -0.613   0.115  0.00  0.00    +0.027 A 
ATOM     18  N   UNL     1       3.679  -2.055  -0.088  0.00  0.00    -0.236 NA
ATOM     19  C   UNL     1       2.947  -2.774  -0.971  0.00  0.00    +0.128 A 
ATOM     20  C   UNL     1       1.640  -2.501  -1.355  0.00  0.00    +0.037 A 
ATOM     21  C   UNL     1       0.989  -1.395  -0.807  0.00  0.00    +0.029 A 
ATOM     22  C   UNL     1       4.867  -0.174   1.889  0.00  0.00    +0.150 C 
ATOM     23 BR   UNL     1       0.761  -3.605  -2.599  0.00  0.00    -0.049 Br
ENDBRANCH  10  13
TORSDOF 1
