REMARK  Name = Fragment
REMARK  4 active torsions:
REMARK  status: ('A' for Active; 'I' for Inactive)
REMARK    1  A    between atoms: N_7  and  C_20
REMARK    2  A    between atoms: C_9  and  C_10
REMARK    3  A    between atoms: C_10  and  C_11
REMARK    4  A    between atoms: N_13  and  C_22
REMARK                            x       y       z     vdW  Elec       q    Type
REMARK                         _______ _______ _______ _____ _____    ______ ____
ROOT
ATOM      1  C   UNL     1       0.285   0.834   0.730  0.00  0.00    +0.055 C 
ENDROOT
BRANCH   1  10
ATOM      2  C   UNL     1      -2.132  -2.022   3.082  0.00  0.00    +0.020 A 
ATOM      3  C   UNL     1      -1.260  -2.921   3.700  0.00  0.00    +0.113 A 
ATOM      4  N   UNL     1       0.040  -3.086   3.360  0.00  0.00    -0.240 NA
ATOM      5  C   UNL     1       0.464  -2.321   2.353  0.00  0.00    +0.131 A 
ATOM      6  C   UNL     1      -0.326  -1.382   1.698  0.00  0.00    +0.005 A 
ATOM      7  C   UNL     1      -1.651  -1.224   2.048  0.00  0.00    +0.009 A 
ATOM      8  N   UNL     1       1.778  -2.372   1.819  0.00  0.00    -0.258 N 
ATOM      9  C   UNL     1       1.908  -1.069   1.171  0.00  0.00    +0.228 C 
ATOM     10  C   UNL     1       0.499  -0.674   0.682  0.00  0.00    +0.113 C 
ATOM     11  C   UNL     1       2.761  -3.462   1.897  0.00  0.00    +0.140 C 
ATOM     12  O   UNL     1       2.923  -0.426   1.043  0.00  0.00    -0.275 OA
ENDBRANCH   1  10
BRANCH   1  13
ATOM     13  C   UNL     1      -0.126   1.323  -0.624  0.00  0.00    -0.020 A 
ATOM     14  C   UNL     1       0.316   2.474  -1.243  0.00  0.00    +0.091 A 
ATOM     15  N   UNL     1      -0.300   2.556  -2.466  0.00  0.00    -0.335 N 
ATOM     16  C   UNL     1      -1.127   1.481  -2.642  0.00  0.00    +0.141 A 
ATOM     17  C   UNL     1      -1.043   0.685  -1.504  0.00  0.00    +0.023 A 
ATOM     18  N   UNL     1      -1.876   1.266  -3.739  0.00  0.00    -0.236 NA
ATOM     19  C   UNL     1      -2.605   0.129  -3.660  0.00  0.00    +0.128 A 
ATOM     20  C   UNL     1      -2.617  -0.755  -2.587  0.00  0.00    +0.037 A 
ATOM     21  C   UNL     1      -1.821  -0.483  -1.474  0.00  0.00    +0.028 A 
ATOM     22  C   UNL     1      -0.101   3.637  -3.442  0.00  0.00    +0.150 C 
ATOM     23 BR   UNL     1      -3.692  -2.298  -2.636  0.00  0.00    -0.049 Br
ENDBRANCH   1  13
TORSDOF 2
