REMARK  Name = Fragment
REMARK  5 active torsions:
REMARK  status: ('A' for Active; 'I' for Inactive)
REMARK    1  A    between atoms: N_7  and  C_30
REMARK    2  A    between atoms: C_10  and  C_11
REMARK    3  A    between atoms: N_13  and  C_21
REMARK    4  A    between atoms: C_21  and  C_22
REMARK    5  A    between atoms: C_24  and  C_30
REMARK                            x       y       z     vdW  Elec       q    Type
REMARK                         _______ _______ _______ _____ _____    ______ ____
ROOT
ATOM      1  C   UNL     1      -3.130   2.636  -0.139  0.00  0.00    +0.020 A 
ATOM      2  C   UNL     1      -3.820   1.583  -0.139  0.00  0.00    +0.113 A 
ATOM      3  N   UNL     1      -3.538   0.355  -0.139  0.00  0.00    -0.239 NA
ATOM      4  C   UNL     1      -2.305   0.092  -0.139  0.00  0.00    +0.136 A 
ATOM      5  C   UNL     1      -1.410   1.085  -0.139  0.00  0.00    +0.027 A 
ATOM      6  C   UNL     1      -1.822   2.357  -0.139  0.00  0.00    +0.013 A 
ATOM      7  N   UNL     1      -1.732  -1.036  -0.150  0.00  0.00    -0.247 N 
ATOM      8  C   UNL     1      -0.472  -0.905  -0.158  0.00  0.00    +0.253 C 
ATOM      9  C   UNL     1      -0.162   0.605  -0.151  0.00  0.00    +0.048 C 
ATOM     10  C   UNL     1       1.011   1.247  -0.155  0.00  0.00    +0.023 C 
ATOM     11  O   UNL     1       0.339  -1.800  -0.169  0.00  0.00    -0.270 OA
ENDROOT
BRANCH  10  12
ATOM     12  C   UNL     1       2.153   0.551  -0.167  0.00  0.00    +0.003 A 
ATOM     13  C   UNL     1       3.287   0.836   0.565  0.00  0.00    +0.096 A 
ATOM     14  N   UNL     1       4.229  -0.117   0.266  0.00  0.00    -0.328 N 
ATOM     15  C   UNL     1       3.720  -1.003  -0.643  0.00  0.00    +0.142 A 
ATOM     16  C   UNL     1       2.418  -0.614  -0.937  0.00  0.00    +0.026 A 
ATOM     17  N   UNL     1       4.394  -2.056  -1.141  0.00  0.00    -0.237 NA
ATOM     18  C   UNL     1       3.662  -2.775  -2.023  0.00  0.00    +0.113 A 
ATOM     19  C   UNL     1       2.355  -2.501  -2.408  0.00  0.00    +0.020 A 
ATOM     20  C   UNL     1       1.704  -1.395  -1.859  0.00  0.00    +0.013 A 
BRANCH  14  21
ATOM     21  C   UNL     1       5.582  -0.175   0.837  0.00  0.00    +0.150 C 
BRANCH  21  22
ATOM     22  C   UNL     1       5.772   0.962   1.792  0.00  0.00    -0.013 C 
ATOM     23  C   UNL     1       6.935   1.110   2.433  0.00  0.00    +0.005 C 
ENDBRANCH  21  22
ENDBRANCH  14  21
ENDBRANCH  10  12
BRANCH   7  24
ATOM     24  C   UNL     1      -2.434  -2.327  -0.153  0.00  0.00    +0.150 C 
BRANCH  24  25
ATOM     25  C   UNL     1      -3.912  -2.092  -0.142  0.00  0.00    -0.030 A 
ATOM     26  C   UNL     1      -4.652  -2.358   1.010  0.00  0.00    +0.005 A 
ATOM     27  C   UNL     1      -6.029  -2.139   1.021  0.00  0.00    +0.000 A 
ATOM     28  C   UNL     1      -6.667  -1.653  -0.120  0.00  0.00    +0.000 A 
ATOM     29  C   UNL     1      -5.928  -1.387  -1.272  0.00  0.00    +0.000 A 
ATOM     30  C   UNL     1      -4.550  -1.607  -1.283  0.00  0.00    +0.005 A 
ENDBRANCH  24  25
ENDBRANCH   7  24
TORSDOF 5
