REMARK  Name = Fragment
REMARK  4 active torsions:
REMARK  status: ('A' for Active; 'I' for Inactive)
REMARK    1  A    between atoms: N_7  and  C_28
REMARK    2  A    between atoms: C_10  and  C_11
REMARK    3  A    between atoms: N_13  and  C_21
REMARK    4  A    between atoms: C_22  and  C_28
REMARK                            x       y       z     vdW  Elec       q    Type
REMARK                         _______ _______ _______ _____ _____    ______ ____
ROOT
ATOM      1  C   UNL     1      -2.420   2.636   0.463  0.00  0.00    +0.020 A 
ATOM      2  C   UNL     1      -3.110   1.583   0.463  0.00  0.00    +0.113 A 
ATOM      3  N   UNL     1      -2.828   0.355   0.463  0.00  0.00    -0.239 NA
ATOM      4  C   UNL     1      -1.595   0.092   0.463  0.00  0.00    +0.136 A 
ATOM      5  C   UNL     1      -0.700   1.085   0.463  0.00  0.00    +0.027 A 
ATOM      6  C   UNL     1      -1.112   2.357   0.463  0.00  0.00    +0.013 A 
ATOM      7  N   UNL     1      -1.021  -1.036   0.452  0.00  0.00    -0.247 N 
ATOM      8  C   UNL     1       0.238  -0.905   0.444  0.00  0.00    +0.253 C 
ATOM      9  C   UNL     1       0.548   0.605   0.452  0.00  0.00    +0.048 C 
ATOM     10  C   UNL     1       1.721   1.247   0.447  0.00  0.00    +0.023 C 
ATOM     11  O   UNL     1       1.049  -1.800   0.433  0.00  0.00    -0.270 OA
ENDROOT
BRANCH  10  12
ATOM     12  C   UNL     1       2.863   0.552   0.435  0.00  0.00    +0.003 A 
ATOM     13  C   UNL     1       3.997   0.836   1.168  0.00  0.00    +0.096 A 
ATOM     14  N   UNL     1       4.939  -0.116   0.868  0.00  0.00    -0.334 N 
ATOM     15  C   UNL     1       4.430  -1.003  -0.040  0.00  0.00    +0.141 A 
ATOM     16  C   UNL     1       3.128  -0.613  -0.335  0.00  0.00    +0.026 A 
ATOM     17  N   UNL     1       5.105  -2.055  -0.538  0.00  0.00    -0.237 NA
ATOM     18  C   UNL     1       4.373  -2.774  -1.420  0.00  0.00    +0.113 A 
ATOM     19  C   UNL     1       3.066  -2.501  -1.805  0.00  0.00    +0.020 A 
ATOM     20  C   UNL     1       2.414  -1.395  -1.256  0.00  0.00    +0.013 A 
ATOM     21  C   UNL     1       6.293  -0.174   1.439  0.00  0.00    +0.150 C 
ENDBRANCH  10  12
BRANCH   7  22
ATOM     22  C   UNL     1      -1.724  -2.328   0.449  0.00  0.00    +0.150 C 
BRANCH  22  23
ATOM     23  C   UNL     1      -3.202  -2.092   0.461  0.00  0.00    -0.030 A 
ATOM     24  C   UNL     1      -3.942  -2.358   1.613  0.00  0.00    +0.005 A 
ATOM     25  C   UNL     1      -5.319  -2.139   1.624  0.00  0.00    +0.000 A 
ATOM     26  C   UNL     1      -5.957  -1.654   0.482  0.00  0.00    +0.000 A 
ATOM     27  C   UNL     1      -5.218  -1.388  -0.670  0.00  0.00    +0.000 A 
ATOM     28  C   UNL     1      -3.840  -1.607  -0.681  0.00  0.00    +0.005 A 
ENDBRANCH  22  23
ENDBRANCH   7  22
TORSDOF 3
