REMARK  Name = Fragment
REMARK  4 active torsions:
REMARK  status: ('A' for Active; 'I' for Inactive)
REMARK    1  A    between atoms: N_7  and  C_20
REMARK    2  A    between atoms: C_9  and  C_10
REMARK    3  A    between atoms: C_10  and  C_11
REMARK    4  A    between atoms: N_13  and  C_22
REMARK                            x       y       z     vdW  Elec       q    Type
REMARK                         _______ _______ _______ _____ _____    ______ ____
ROOT
ATOM      1  C   UNL     1      -2.016  -2.022   3.082  0.00  0.00    +0.036 A 
ATOM      2  C   UNL     1      -1.144  -2.921   3.700  0.00  0.00    +0.128 A 
ATOM      3  N   UNL     1       0.157  -3.086   3.360  0.00  0.00    -0.239 NA
ATOM      4  C   UNL     1       0.580  -2.321   2.353  0.00  0.00    +0.131 A 
ATOM      5  C   UNL     1      -0.210  -1.382   1.698  0.00  0.00    +0.006 A 
ATOM      6  C   UNL     1      -1.535  -1.224   2.048  0.00  0.00    +0.024 A 
ATOM      7  N   UNL     1       1.895  -2.372   1.819  0.00  0.00    -0.258 N 
ATOM      8  C   UNL     1       2.025  -1.069   1.171  0.00  0.00    +0.228 C 
ATOM      9  C   UNL     1       0.615  -0.674   0.682  0.00  0.00    +0.113 C 
ATOM     10  C   UNL     1       2.878  -3.462   1.897  0.00  0.00    +0.140 C 
ATOM     11  O   UNL     1       3.039  -0.426   1.043  0.00  0.00    -0.275 OA
ATOM     12 BR   UNL     1      -3.808  -1.892   3.637  0.00  0.00    -0.049 Br
ENDROOT
BRANCH   9  13
ATOM     13  C   UNL     1       0.401   0.834   0.730  0.00  0.00    +0.055 C 
BRANCH  13  14
ATOM     14  C   UNL     1      -0.010   1.323  -0.624  0.00  0.00    -0.020 A 
ATOM     15  C   UNL     1       0.432   2.474  -1.243  0.00  0.00    +0.091 A 
ATOM     16  N   UNL     1      -0.184   2.556  -2.466  0.00  0.00    -0.335 N 
ATOM     17  C   UNL     1      -1.011   1.481  -2.642  0.00  0.00    +0.141 A 
ATOM     18  C   UNL     1      -0.926   0.685  -1.504  0.00  0.00    +0.022 A 
ATOM     19  N   UNL     1      -1.760   1.266  -3.739  0.00  0.00    -0.237 NA
ATOM     20  C   UNL     1      -2.489   0.129  -3.660  0.00  0.00    +0.113 A 
ATOM     21  C   UNL     1      -2.501  -0.755  -2.587  0.00  0.00    +0.020 A 
ATOM     22  C   UNL     1      -1.704  -0.483  -1.474  0.00  0.00    +0.013 A 
ATOM     23  C   UNL     1       0.015   3.637  -3.442  0.00  0.00    +0.150 C 
ENDBRANCH  13  14
ENDBRANCH   9  13
TORSDOF 2
