REMARK  Name = Fragment
REMARK  4 active torsions:
REMARK  status: ('A' for Active; 'I' for Inactive)
REMARK    1  A    between atoms: N_7  and  C_20
REMARK    2  A    between atoms: C_9  and  C_10
REMARK    3  A    between atoms: C_10  and  C_11
REMARK    4  A    between atoms: N_13  and  C_22
REMARK                            x       y       z     vdW  Elec       q    Type
REMARK                         _______ _______ _______ _____ _____    ______ ____
ROOT
ATOM      1  C   UNL     1      -2.355  -2.022   3.082  0.00  0.00    +0.020 A 
ATOM      2  C   UNL     1      -1.484  -2.921   3.700  0.00  0.00    +0.113 A 
ATOM      3  N   UNL     1      -0.183  -3.086   3.360  0.00  0.00    -0.240 NA
ATOM      4  C   UNL     1       0.241  -2.321   2.353  0.00  0.00    +0.131 A 
ATOM      5  C   UNL     1      -0.549  -1.382   1.698  0.00  0.00    +0.005 A 
ATOM      6  C   UNL     1      -1.874  -1.224   2.048  0.00  0.00    +0.009 A 
ATOM      7  N   UNL     1       1.555  -2.372   1.819  0.00  0.00    -0.258 N 
ATOM      8  C   UNL     1       1.685  -1.069   1.171  0.00  0.00    +0.228 C 
ATOM      9  C   UNL     1       0.276  -0.674   0.682  0.00  0.00    +0.113 C 
ATOM     10  C   UNL     1       2.538  -3.462   1.897  0.00  0.00    +0.140 C 
ATOM     11  O   UNL     1       2.700  -0.426   1.043  0.00  0.00    -0.275 OA
ENDROOT
BRANCH   9  12
ATOM     12  C   UNL     1       0.062   0.834   0.730  0.00  0.00    +0.055 C 
BRANCH  12  13
ATOM     13  C   UNL     1      -0.349   1.323  -0.624  0.00  0.00    -0.020 A 
ATOM     14  C   UNL     1       0.093   2.474  -1.243  0.00  0.00    +0.091 A 
ATOM     15  N   UNL     1      -0.523   2.556  -2.466  0.00  0.00    -0.335 N 
ATOM     16  C   UNL     1      -1.351   1.481  -2.642  0.00  0.00    +0.141 A 
ATOM     17  C   UNL     1      -1.266   0.685  -1.504  0.00  0.00    +0.022 A 
ATOM     18  N   UNL     1      -2.099   1.266  -3.739  0.00  0.00    -0.237 NA
ATOM     19  C   UNL     1      -2.828   0.129  -3.660  0.00  0.00    +0.113 A 
ATOM     20  C   UNL     1      -2.840  -0.755  -2.587  0.00  0.00    +0.020 A 
ATOM     21  C   UNL     1      -2.044  -0.483  -1.474  0.00  0.00    +0.013 A 
ATOM     22  C   UNL     1      -0.324   3.637  -3.442  0.00  0.00    +0.150 C 
ENDBRANCH  12  13
ENDBRANCH   9  12
TORSDOF 2
