REMARK  Name = Fragment
REMARK  3 active torsions:
REMARK  status: ('A' for Active; 'I' for Inactive)
REMARK    1  A    between atoms: N_7  and  C_20
REMARK    2  A    between atoms: C_10  and  C_11
REMARK    3  A    between atoms: N_13  and  C_22
REMARK                            x       y       z     vdW  Elec       q    Type
REMARK                         _______ _______ _______ _____ _____    ______ ____
ROOT
ATOM      1  C   UNL     1      -3.845   2.275   0.655  0.00  0.00    +0.037 A 
ATOM      2  C   UNL     1      -4.535   1.222   0.655  0.00  0.00    +0.128 A 
ATOM      3  N   UNL     1      -4.253  -0.006   0.655  0.00  0.00    -0.238 NA
ATOM      4  C   UNL     1      -3.021  -0.269   0.655  0.00  0.00    +0.135 A 
ATOM      5  C   UNL     1      -2.125   0.724   0.655  0.00  0.00    +0.028 A 
ATOM      6  C   UNL     1      -2.537   1.996   0.655  0.00  0.00    +0.029 A 
ATOM      7  N   UNL     1      -2.447  -1.397   0.644  0.00  0.00    -0.255 N 
ATOM      8  C   UNL     1      -1.188  -1.266   0.636  0.00  0.00    +0.252 C 
ATOM      9  C   UNL     1      -0.877   0.244   0.643  0.00  0.00    +0.048 C 
ATOM     10  C   UNL     1       0.296   0.885   0.639  0.00  0.00    +0.023 C 
ATOM     11  C   UNL     1      -3.149  -2.688   0.641  0.00  0.00    +0.140 C 
ATOM     12  O   UNL     1      -0.377  -2.161   0.625  0.00  0.00    -0.270 OA
ATOM     13 BR   UNL     1      -4.560   4.015   0.655  0.00  0.00    -0.049 Br
ENDROOT
BRANCH  10  14
ATOM     14  C   UNL     1       1.438   0.190   0.627  0.00  0.00    +0.003 A 
ATOM     15  C   UNL     1       2.572   0.474   1.360  0.00  0.00    +0.096 A 
ATOM     16  N   UNL     1       3.514  -0.478   1.060  0.00  0.00    -0.334 N 
ATOM     17  C   UNL     1       3.005  -1.364   0.151  0.00  0.00    +0.141 A 
ATOM     18  C   UNL     1       1.702  -0.975  -0.143  0.00  0.00    +0.026 A 
ATOM     19  N   UNL     1       3.679  -2.417  -0.346  0.00  0.00    -0.237 NA
ATOM     20  C   UNL     1       2.947  -3.136  -1.229  0.00  0.00    +0.113 A 
ATOM     21  C   UNL     1       1.640  -2.862  -1.614  0.00  0.00    +0.020 A 
ATOM     22  C   UNL     1       0.989  -1.756  -1.065  0.00  0.00    +0.013 A 
ATOM     23  C   UNL     1       4.867  -0.536   1.631  0.00  0.00    +0.150 C 
ENDBRANCH  10  14
TORSDOF 1
