REMARK  Name = Fragment
REMARK  4 active torsions:
REMARK  status: ('A' for Active; 'I' for Inactive)
REMARK    1  A    between atoms: N_7  and  C_20
REMARK    2  A    between atoms: C_10  and  C_11
REMARK    3  A    between atoms: N_13  and  C_30
REMARK    4  A    between atoms: C_24  and  C_30
REMARK                            x       y       z     vdW  Elec       q    Type
REMARK                         _______ _______ _______ _____ _____    ______ ____
ROOT
ATOM      1  C   UNL     1       0.663   0.191  -0.615  0.00  0.00    +0.003 A 
ATOM      2  C   UNL     1       1.797   0.475   0.117  0.00  0.00    +0.096 A 
ATOM      3  N   UNL     1       2.739  -0.477  -0.182  0.00  0.00    -0.327 N 
ATOM      4  C   UNL     1       2.230  -1.364  -1.091  0.00  0.00    +0.142 A 
ATOM      5  C   UNL     1       0.928  -0.975  -1.385  0.00  0.00    +0.027 A 
ATOM      6  N   UNL     1       2.905  -2.417  -1.589  0.00  0.00    -0.236 NA
ATOM      7  C   UNL     1       2.173  -3.135  -2.471  0.00  0.00    +0.128 A 
ATOM      8  C   UNL     1       0.866  -2.862  -2.856  0.00  0.00    +0.037 A 
ATOM      9  C   UNL     1       0.214  -1.756  -2.307  0.00  0.00    +0.029 A 
ATOM     10 BR   UNL     1      -0.013  -3.966  -4.099  0.00  0.00    -0.049 Br
ENDROOT
BRANCH   1  20
ATOM     11  C   UNL     1      -4.620   2.275  -0.588  0.00  0.00    +0.037 A 
ATOM     12  C   UNL     1      -5.310   1.222  -0.588  0.00  0.00    +0.128 A 
ATOM     13  N   UNL     1      -5.027  -0.006  -0.588  0.00  0.00    -0.238 NA
ATOM     14  C   UNL     1      -3.795  -0.269  -0.588  0.00  0.00    +0.135 A 
ATOM     15  C   UNL     1      -2.900   0.724  -0.588  0.00  0.00    +0.028 A 
ATOM     16  C   UNL     1      -3.312   1.996  -0.588  0.00  0.00    +0.029 A 
ATOM     17  N   UNL     1      -3.221  -1.397  -0.598  0.00  0.00    -0.255 N 
ATOM     18  C   UNL     1      -1.962  -1.266  -0.606  0.00  0.00    +0.252 C 
ATOM     19  C   UNL     1      -1.652   0.244  -0.599  0.00  0.00    +0.048 C 
ATOM     20  C   UNL     1      -0.479   0.885  -0.603  0.00  0.00    +0.023 C 
ATOM     21  C   UNL     1      -3.924  -2.689  -0.602  0.00  0.00    +0.140 C 
ATOM     22  O   UNL     1      -1.151  -2.161  -0.617  0.00  0.00    -0.270 OA
ATOM     23 BR   UNL     1      -5.335   4.014  -0.588  0.00  0.00    -0.049 Br
ENDBRANCH   1  20
BRANCH   3  24
ATOM     24  C   UNL     1       4.093  -0.536   0.388  0.00  0.00    +0.158 C 
BRANCH  24  25
ATOM     25  C   UNL     1       4.282   0.602   1.343  0.00  0.00    -0.028 A 
ATOM     26  C   UNL     1       5.364   1.469   1.190  0.00  0.00    +0.005 A 
ATOM     27  C   UNL     1       5.540   2.528   2.080  0.00  0.00    +0.000 A 
ATOM     28  C   UNL     1       4.634   2.721   3.123  0.00  0.00    +0.000 A 
ATOM     29  C   UNL     1       3.552   1.854   3.276  0.00  0.00    +0.000 A 
ATOM     30  C   UNL     1       3.376   0.794   2.387  0.00  0.00    +0.005 A 
ENDBRANCH  24  25
ENDBRANCH   3  24
TORSDOF 3
