REMARK  Name = Fragment
REMARK  5 active torsions:
REMARK  status: ('A' for Active; 'I' for Inactive)
REMARK    1  A    between atoms: N_7  and  C_29
REMARK    2  A    between atoms: C_9  and  C_10
REMARK    3  A    between atoms: C_10  and  C_11
REMARK    4  A    between atoms: N_13  and  C_21
REMARK    5  A    between atoms: C_23  and  C_29
REMARK                            x       y       z     vdW  Elec       q    Type
REMARK                         _______ _______ _______ _____ _____    ______ ____
ROOT
ATOM      1  C   UNL     1      -3.919  -1.803   3.082  0.00  0.00    +0.020 A 
ATOM      2  C   UNL     1      -3.048  -2.701   3.700  0.00  0.00    +0.113 A 
ATOM      3  N   UNL     1      -1.747  -2.867   3.360  0.00  0.00    -0.240 NA
ATOM      4  C   UNL     1      -1.323  -2.102   2.353  0.00  0.00    +0.132 A 
ATOM      5  C   UNL     1      -2.113  -1.163   1.698  0.00  0.00    +0.005 A 
ATOM      6  C   UNL     1      -3.438  -1.005   2.048  0.00  0.00    +0.009 A 
ATOM      7  N   UNL     1      -0.009  -2.153   1.819  0.00  0.00    -0.251 N 
ATOM      8  C   UNL     1       0.121  -0.850   1.171  0.00  0.00    +0.229 C 
ATOM      9  C   UNL     1      -1.288  -0.455   0.682  0.00  0.00    +0.113 C 
ATOM     10  O   UNL     1       1.136  -0.207   1.043  0.00  0.00    -0.275 OA
ENDROOT
BRANCH   9  11
ATOM     11  C   UNL     1      -1.502   1.053   0.730  0.00  0.00    +0.055 C 
BRANCH  11  12
ATOM     12  C   UNL     1      -1.913   1.542  -0.624  0.00  0.00    -0.020 A 
ATOM     13  C   UNL     1      -1.471   2.693  -1.243  0.00  0.00    +0.091 A 
ATOM     14  N   UNL     1      -2.087   2.775  -2.466  0.00  0.00    -0.335 N 
ATOM     15  C   UNL     1      -2.914   1.700  -2.642  0.00  0.00    +0.141 A 
ATOM     16  C   UNL     1      -2.830   0.904  -1.504  0.00  0.00    +0.023 A 
ATOM     17  N   UNL     1      -3.663   1.485  -3.739  0.00  0.00    -0.236 NA
ATOM     18  C   UNL     1      -4.392   0.348  -3.660  0.00  0.00    +0.128 A 
ATOM     19  C   UNL     1      -4.404  -0.536  -2.587  0.00  0.00    +0.037 A 
ATOM     20  C   UNL     1      -3.608  -0.264  -1.474  0.00  0.00    +0.028 A 
ATOM     21  C   UNL     1      -1.888   3.856  -3.442  0.00  0.00    +0.150 C 
ATOM     22 BR   UNL     1      -5.479  -2.079  -2.636  0.00  0.00    -0.049 Br
ENDBRANCH  11  12
ENDBRANCH   9  11
BRANCH   7  23
ATOM     23  C   UNL     1       0.974  -3.243   1.897  0.00  0.00    +0.150 C 
BRANCH  23  24
ATOM     24  C   UNL     1       2.226  -2.839   1.183  0.00  0.00    -0.030 A 
ATOM     25  C   UNL     1       2.751  -3.655   0.180  0.00  0.00    +0.005 A 
ATOM     26  C   UNL     1       3.918  -3.279  -0.485  0.00  0.00    +0.000 A 
ATOM     27  C   UNL     1       4.559  -2.087  -0.148  0.00  0.00    +0.000 A 
ATOM     28  C   UNL     1       4.035  -1.271   0.854  0.00  0.00    +0.000 A 
ATOM     29  C   UNL     1       2.868  -1.647   1.520  0.00  0.00    +0.005 A 
ENDBRANCH  23  24
ENDBRANCH   7  23
TORSDOF 4
