REMARK  Name = Fragment
REMARK  5 active torsions:
REMARK  status: ('A' for Active; 'I' for Inactive)
REMARK    1  A    between atoms: N_7  and  C_20
REMARK    2  A    between atoms: C_9  and  C_10
REMARK    3  A    between atoms: C_10  and  C_11
REMARK    4  A    between atoms: N_13  and  C_29
REMARK    5  A    between atoms: C_23  and  C_29
REMARK                            x       y       z     vdW  Elec       q    Type
REMARK                         _______ _______ _______ _____ _____    ______ ____
ROOT
ATOM      1  C   UNL     1      -0.293  -0.475  -0.624  0.00  0.00    -0.020 A 
ATOM      2  C   UNL     1       0.150   0.676  -1.243  0.00  0.00    +0.092 A 
ATOM      3  N   UNL     1      -0.467   0.757  -2.466  0.00  0.00    -0.327 N 
ATOM      4  C   UNL     1      -1.294  -0.318  -2.642  0.00  0.00    +0.141 A 
ATOM      5  C   UNL     1      -1.209  -1.113  -1.504  0.00  0.00    +0.023 A 
ATOM      6  N   UNL     1      -2.042  -0.532  -3.739  0.00  0.00    -0.236 NA
ATOM      7  C   UNL     1      -2.772  -1.669  -3.660  0.00  0.00    +0.128 A 
ATOM      8  C   UNL     1      -2.784  -2.553  -2.587  0.00  0.00    +0.037 A 
ATOM      9  C   UNL     1      -1.987  -2.281  -1.474  0.00  0.00    +0.028 A 
ATOM     10 BR   UNL     1      -3.859  -4.096  -2.636  0.00  0.00    -0.049 Br
ENDROOT
BRANCH   1  11
ATOM     11  C   UNL     1       0.118  -0.965   0.730  0.00  0.00    +0.055 C 
BRANCH  11  20
ATOM     12  C   UNL     1      -2.299  -3.820   3.082  0.00  0.00    +0.020 A 
ATOM     13  C   UNL     1      -1.427  -4.719   3.700  0.00  0.00    +0.113 A 
ATOM     14  N   UNL     1      -0.126  -4.884   3.360  0.00  0.00    -0.240 NA
ATOM     15  C   UNL     1       0.297  -4.119   2.353  0.00  0.00    +0.131 A 
ATOM     16  C   UNL     1      -0.493  -3.180   1.698  0.00  0.00    +0.005 A 
ATOM     17  C   UNL     1      -1.818  -3.022   2.048  0.00  0.00    +0.009 A 
ATOM     18  N   UNL     1       1.612  -4.170   1.819  0.00  0.00    -0.258 N 
ATOM     19  C   UNL     1       1.742  -2.867   1.171  0.00  0.00    +0.228 C 
ATOM     20  C   UNL     1       0.332  -2.472   0.682  0.00  0.00    +0.113 C 
ATOM     21  C   UNL     1       2.595  -5.260   1.897  0.00  0.00    +0.140 C 
ATOM     22  O   UNL     1       2.756  -2.224   1.043  0.00  0.00    -0.275 OA
ENDBRANCH  11  20
ENDBRANCH   1  11
BRANCH   3  23
ATOM     23  C   UNL     1      -0.268   1.839  -3.442  0.00  0.00    +0.158 C 
BRANCH  23  24
ATOM     24  C   UNL     1       0.709   2.833  -2.895  0.00  0.00    -0.028 A 
ATOM     25  C   UNL     1       0.365   4.183  -2.828  0.00  0.00    +0.005 A 
ATOM     26  C   UNL     1       1.275   5.109  -2.317  0.00  0.00    +0.000 A 
ATOM     27  C   UNL     1       2.528   4.685  -1.875  0.00  0.00    +0.000 A 
ATOM     28  C   UNL     1       2.871   3.334  -1.942  0.00  0.00    +0.000 A 
ATOM     29  C   UNL     1       1.961   2.408  -2.452  0.00  0.00    +0.005 A 
ENDBRANCH  23  24
ENDBRANCH   3  23
TORSDOF 4
