REMARK  Name = Fragment
REMARK  3 active torsions:
REMARK  status: ('A' for Active; 'I' for Inactive)
REMARK    1  A    between atoms: N_7  and  C_20
REMARK    2  A    between atoms: C_10  and  C_11
REMARK    3  A    between atoms: N_13  and  C_22
REMARK                            x       y       z     vdW  Elec       q    Type
REMARK                         _______ _______ _______ _____ _____    ______ ____
ROOT
ATOM      1  C   UNL     1      -3.710   2.492   0.667  0.00  0.00    +0.020 A 
ATOM      2  C   UNL     1      -4.401   1.439   0.667  0.00  0.00    +0.113 A 
ATOM      3  N   UNL     1      -4.118   0.211   0.667  0.00  0.00    -0.239 NA
ATOM      4  C   UNL     1      -2.886  -0.051   0.667  0.00  0.00    +0.135 A 
ATOM      5  C   UNL     1      -1.991   0.942   0.667  0.00  0.00    +0.027 A 
ATOM      6  C   UNL     1      -2.403   2.213   0.667  0.00  0.00    +0.013 A 
ATOM      7  N   UNL     1      -2.312  -1.180   0.656  0.00  0.00    -0.255 N 
ATOM      8  C   UNL     1      -1.053  -1.048   0.648  0.00  0.00    +0.252 C 
ATOM      9  C   UNL     1      -0.743   0.462   0.656  0.00  0.00    +0.048 C 
ATOM     10  C   UNL     1       0.430   1.103   0.652  0.00  0.00    +0.023 C 
ATOM     11  C   UNL     1      -3.014  -2.471   0.653  0.00  0.00    +0.140 C 
ATOM     12  O   UNL     1      -0.242  -1.944   0.637  0.00  0.00    -0.270 OA
ENDROOT
BRANCH  10  13
ATOM     13  C   UNL     1       1.572   0.408   0.639  0.00  0.00    +0.001 A 
ATOM     14  C   UNL     1       2.632   0.573   1.502  0.00  0.00    +0.094 A 
ATOM     15  N   UNL     1       3.600  -0.330   1.153  0.00  0.00    -0.349 N 
ATOM     16  C   UNL     1       3.186  -1.081   0.076  0.00  0.00    +0.049 A 
ATOM     17  C   UNL     1       1.910  -0.634  -0.268  0.00  0.00    +0.007 A 
ATOM     18  C   UNL     1       3.838  -2.110  -0.614  0.00  0.00    +0.026 A 
ATOM     19  C   UNL     1       3.161  -2.698  -1.687  0.00  0.00    +0.002 A 
ATOM     20  C   UNL     1       1.885  -2.273  -2.053  0.00  0.00    +0.001 A 
ATOM     21  C   UNL     1       1.248  -1.242  -1.352  0.00  0.00    +0.010 A 
ATOM     22  C   UNL     1       4.896  -0.478   1.832  0.00  0.00    +0.149 C 
ENDBRANCH  10  13
TORSDOF 1
