REMARK  Name = Fragment
REMARK  4 active torsions:
REMARK  status: ('A' for Active; 'I' for Inactive)
REMARK    1  A    between atoms: N_7  and  C_29
REMARK    2  A    between atoms: C_10  and  C_11
REMARK    3  A    between atoms: N_13  and  C_21
REMARK    4  A    between atoms: C_23  and  C_29
REMARK                            x       y       z     vdW  Elec       q    Type
REMARK                         _______ _______ _______ _____ _____    ______ ____
ROOT
ATOM      1  C   UNL     1      -2.420   2.636   0.721  0.00  0.00    +0.020 A 
ATOM      2  C   UNL     1      -3.110   1.583   0.721  0.00  0.00    +0.113 A 
ATOM      3  N   UNL     1      -2.828   0.355   0.721  0.00  0.00    -0.239 NA
ATOM      4  C   UNL     1      -1.595   0.092   0.721  0.00  0.00    +0.136 A 
ATOM      5  C   UNL     1      -0.700   1.085   0.721  0.00  0.00    +0.027 A 
ATOM      6  C   UNL     1      -1.112   2.357   0.721  0.00  0.00    +0.013 A 
ATOM      7  N   UNL     1      -1.021  -1.036   0.710  0.00  0.00    -0.247 N 
ATOM      8  C   UNL     1       0.238  -0.905   0.702  0.00  0.00    +0.253 C 
ATOM      9  C   UNL     1       0.548   0.605   0.710  0.00  0.00    +0.048 C 
ATOM     10  C   UNL     1       1.721   1.247   0.706  0.00  0.00    +0.023 C 
ATOM     11  O   UNL     1       1.049  -1.800   0.691  0.00  0.00    -0.270 OA
ENDROOT
BRANCH  10  12
ATOM     12  C   UNL     1       2.863   0.552   0.693  0.00  0.00    +0.003 A 
ATOM     13  C   UNL     1       3.997   0.836   1.426  0.00  0.00    +0.096 A 
ATOM     14  N   UNL     1       4.939  -0.116   1.127  0.00  0.00    -0.334 N 
ATOM     15  C   UNL     1       4.430  -1.003   0.218  0.00  0.00    +0.141 A 
ATOM     16  C   UNL     1       3.128  -0.613  -0.077  0.00  0.00    +0.027 A 
ATOM     17  N   UNL     1       5.105  -2.055  -0.280  0.00  0.00    -0.236 NA
ATOM     18  C   UNL     1       4.373  -2.774  -1.162  0.00  0.00    +0.128 A 
ATOM     19  C   UNL     1       3.066  -2.501  -1.547  0.00  0.00    +0.037 A 
ATOM     20  C   UNL     1       2.414  -1.395  -0.998  0.00  0.00    +0.029 A 
ATOM     21  C   UNL     1       6.293  -0.174   1.697  0.00  0.00    +0.150 C 
ATOM     22 BR   UNL     1       2.187  -3.605  -2.791  0.00  0.00    -0.049 Br
ENDBRANCH  10  12
BRANCH   7  23
ATOM     23  C   UNL     1      -1.724  -2.328   0.707  0.00  0.00    +0.150 C 
BRANCH  23  24
ATOM     24  C   UNL     1      -3.202  -2.092   0.719  0.00  0.00    -0.030 A 
ATOM     25  C   UNL     1      -3.942  -2.358   1.871  0.00  0.00    +0.005 A 
ATOM     26  C   UNL     1      -5.319  -2.139   1.882  0.00  0.00    +0.000 A 
ATOM     27  C   UNL     1      -5.957  -1.654   0.740  0.00  0.00    +0.000 A 
ATOM     28  C   UNL     1      -5.218  -1.388  -0.412  0.00  0.00    +0.000 A 
ATOM     29  C   UNL     1      -3.840  -1.607  -0.423  0.00  0.00    +0.005 A 
ENDBRANCH  23  24
ENDBRANCH   7  23
TORSDOF 3
