REMARK  Name = Fragment
REMARK  6 active torsions:
REMARK  status: ('A' for Active; 'I' for Inactive)
REMARK    1  A    between atoms: N_7  and  C_30
REMARK    2  A    between atoms: C_9  and  C_10
REMARK    3  A    between atoms: C_10  and  C_11
REMARK    4  A    between atoms: N_13  and  C_21
REMARK    5  A    between atoms: C_21  and  C_22
REMARK    6  A    between atoms: C_24  and  C_30
REMARK                            x       y       z     vdW  Elec       q    Type
REMARK                         _______ _______ _______ _____ _____    ______ ____
ROOT
ATOM      1  C   UNL     1      -4.142  -2.833   3.128  0.00  0.00    +0.020 A 
ATOM      2  C   UNL     1      -3.271  -3.732   3.746  0.00  0.00    +0.113 A 
ATOM      3  N   UNL     1      -1.970  -3.897   3.406  0.00  0.00    -0.240 NA
ATOM      4  C   UNL     1      -1.546  -3.132   2.398  0.00  0.00    +0.132 A 
ATOM      5  C   UNL     1      -2.336  -2.193   1.744  0.00  0.00    +0.005 A 
ATOM      6  C   UNL     1      -3.661  -2.035   2.094  0.00  0.00    +0.009 A 
ATOM      7  N   UNL     1      -0.232  -3.183   1.864  0.00  0.00    -0.251 N 
ATOM      8  C   UNL     1      -0.102  -1.880   1.217  0.00  0.00    +0.229 C 
ATOM      9  C   UNL     1      -1.512  -1.485   0.728  0.00  0.00    +0.113 C 
ATOM     10  O   UNL     1       0.912  -1.237   1.088  0.00  0.00    -0.275 OA
ENDROOT
BRANCH   9  11
ATOM     11  C   UNL     1      -1.726   0.022   0.775  0.00  0.00    +0.055 C 
BRANCH  11  12
ATOM     12  C   UNL     1      -2.137   0.512  -0.578  0.00  0.00    -0.020 A 
ATOM     13  C   UNL     1      -1.694   1.663  -1.197  0.00  0.00    +0.092 A 
ATOM     14  N   UNL     1      -2.311   1.744  -2.421  0.00  0.00    -0.328 N 
ATOM     15  C   UNL     1      -3.138   0.669  -2.596  0.00  0.00    +0.141 A 
ATOM     16  C   UNL     1      -3.053  -0.126  -1.458  0.00  0.00    +0.022 A 
ATOM     17  N   UNL     1      -3.886   0.455  -3.694  0.00  0.00    -0.237 NA
ATOM     18  C   UNL     1      -4.615  -0.682  -3.614  0.00  0.00    +0.113 A 
ATOM     19  C   UNL     1      -4.628  -1.566  -2.542  0.00  0.00    +0.020 A 
ATOM     20  C   UNL     1      -3.831  -1.294  -1.429  0.00  0.00    +0.013 A 
BRANCH  14  21
ATOM     21  C   UNL     1      -2.111   2.826  -3.397  0.00  0.00    +0.150 C 
BRANCH  21  22
ATOM     22  C   UNL     1      -1.135   3.820  -2.849  0.00  0.00    -0.013 C 
ATOM     23  C   UNL     1      -0.800   4.895  -3.570  0.00  0.00    +0.005 C 
ENDBRANCH  21  22
ENDBRANCH  14  21
ENDBRANCH  11  12
ENDBRANCH   9  11
BRANCH   7  24
ATOM     24  C   UNL     1       0.751  -4.273   1.943  0.00  0.00    +0.150 C 
BRANCH  24  25
ATOM     25  C   UNL     1       2.003  -3.869   1.228  0.00  0.00    -0.030 A 
ATOM     26  C   UNL     1       2.528  -4.685   0.226  0.00  0.00    +0.005 A 
ATOM     27  C   UNL     1       3.695  -4.309  -0.440  0.00  0.00    +0.000 A 
ATOM     28  C   UNL     1       4.336  -3.117  -0.103  0.00  0.00    +0.000 A 
ATOM     29  C   UNL     1       3.812  -2.301   0.899  0.00  0.00    +0.000 A 
ATOM     30  C   UNL     1       2.645  -2.678   1.565  0.00  0.00    +0.005 A 
ENDBRANCH  24  25
ENDBRANCH   7  24
TORSDOF 6
