=
 OpenBabel01132613023D

 27 31  0  0  0  0  0  0  0  0999 V2000
   -3.9530   -0.9490   -0.7120 C   0  0  0  0  0  3  0  0  0  0  0  0
   -4.1360   -2.2740   -0.7120 C   0  0  0  0  0  3  0  0  0  0  0  0
   -3.0800   -3.0950   -0.7000 C   0  0  0  0  0  3  0  0  0  0  0  0
   -1.8420   -2.5910   -0.6870 C   0  0  0  0  0  0  0  0  0  0  0  0
   -1.6590   -1.2670   -0.6870 C   0  0  0  0  0  0  0  0  0  0  0  0
   -2.7140   -0.4460   -0.7000 C   0  0  0  0  0  3  0  0  0  0  0  0
   -0.7330   -3.2020   -0.6870 N   0  0  0  0  0  0  0  0  0  0  0  0
    0.2340   -2.3870   -0.6430 C   0  0  0  0  0  0  0  0  0  0  0  0
   -0.3570   -0.9630   -0.6860 C   0  0  0  0  0  0  0  0  0  0  0  0
    1.5070   -2.8490   -0.5850 O   0  0  0  0  0  0  0  0  0  0  0  0
   -0.1790   -4.5630   -0.7360 C   0  0  0  0  0  2  0  0  0  0  0  0
    1.2990   -4.5570   -0.3680 C   0  0  0  0  0  2  0  0  0  0  0  0
    1.4560   -4.1510    1.0910 C   0  0  0  0  0  2  0  0  0  0  0  0
    1.9640   -2.8830    0.7400 C   0  0  0  0  0  2  0  0  0  0  0  0
    0.2540    0.2260   -0.7130 C   0  0  0  0  0  0  0  0  0  0  0  0
    1.4980    0.4550   -0.7490 N   0  0  0  0  0  0  0  0  0  0  0  0
    1.7310    1.6990   -0.7660 C   0  0  0  0  0  0  0  0  0  0  0  0
    0.5920    2.4000   -0.7410 C   0  0  0  0  0  0  0  0  0  0  0  0
   -0.4080    1.6340   -0.7070 N   0  0  0  0  0  0  0  0  0  0  0  0
    2.9050    2.3360   -0.8160 C   0  0  0  0  0  3  0  0  0  0  0  0
    2.9420    3.6720   -0.8370 C   0  0  0  0  0  0  0  0  0  0  0  0
    1.8030    4.3720   -0.8170 C   0  0  0  0  0  3  0  0  0  0  0  0
    0.6280    3.7360   -0.7670 C   0  0  0  0  0  3  0  0  0  0  0  0
    2.2400   -0.2890   -0.7620 H   0  0  0  0  0  0  0  0  0  0  0  0
    4.0390    4.2660   -0.8740 N   0  0  0  0  0  0  0  0  0  0  0  0
    4.0740    5.5750   -0.8940 O   0  0  0  0  0  0  0  0  0  0  0  0
    5.1550    3.5800   -0.8940 O   0  0  0  0  0  0  0  0  0  0  0  0
  1  2  2  0  0  0  0
  1  6  1  0  0  0  0
  2  3  1  0  0  0  0
  3  4  2  0  0  0  0
  4  5  1  0  0  0  0
  4  7  1  0  0  0  0
  5  9  1  0  0  0  0
  6  5  2  0  0  0  0
  7  8  1  0  0  0  0
  8 10  1  0  0  0  0
  9  8  2  0  0  0  0
 10 14  1  0  0  0  0
 11  7  1  0  0  0  0
 11 12  1  0  0  0  0
 12 13  1  0  0  0  0
 14 13  1  0  0  0  0
 15 19  2  0  0  0  0
 15  9  1  0  0  0  0
 16 15  1  0  0  0  0
 17 16  1  0  0  0  0
 17 18  1  0  0  0  0
 18 19  1  0  0  0  0
 20 17  2  0  0  0  0
 21 22  2  0  0  0  0
 21 20  1  0  0  0  0
 22 23  1  0  0  0  0
 23 18  2  0  0  0  0
 24 16  1  0  0  0  0
 25 21  1  0  0  0  0
 26 25  2  0  0  0  0
 27 25  2  0  0  0  0
M  END
>  <REMARK>
  Name = 
  2 active torsions:
  status: ('A' for Active; 'I' for Inactive)
    1  A    between atoms: C_9  and  C_11
    2  A    between atoms: C_17  and  N_24
                            x       y       z     vdW  Elec       q    Type
                         _______ _______ _______ _____ _____    ______ ____

>  <TORSDO>
F 2

$$$$
