=
 OpenBabel01132613023D

 25 29  0  0  0  0  0  0  0  0999 V2000
   -3.6730   -0.8970   -0.7120 C   0  0  0  0  0  3  0  0  0  0  0  0
   -3.8560   -2.2220   -0.7120 C   0  0  0  0  0  3  0  0  0  0  0  0
   -2.8010   -3.0430   -0.7000 C   0  0  0  0  0  3  0  0  0  0  0  0
   -1.5620   -2.5390   -0.6870 C   0  0  0  0  0  0  0  0  0  0  0  0
   -1.3790   -1.2150   -0.6870 C   0  0  0  0  0  0  0  0  0  0  0  0
   -2.4340   -0.3940   -0.7000 C   0  0  0  0  0  3  0  0  0  0  0  0
   -0.4540   -3.1510   -0.6870 N   0  0  0  0  0  0  0  0  0  0  0  0
    0.5140   -2.3350   -0.6430 C   0  0  0  0  0  0  0  0  0  0  0  0
   -0.0770   -0.9110   -0.6860 C   0  0  0  0  0  0  0  0  0  0  0  0
    1.7870   -2.7970   -0.5850 O   0  0  0  0  0  0  0  0  0  0  0  0
    0.1010   -4.5110   -0.7360 C   0  0  0  0  0  2  0  0  0  0  0  0
    1.5780   -4.5050   -0.3680 C   0  0  0  0  0  2  0  0  0  0  0  0
    1.7360   -4.0990    1.0910 C   0  0  0  0  0  2  0  0  0  0  0  0
    2.2440   -2.8320    0.7400 C   0  0  0  0  0  2  0  0  0  0  0  0
    0.5340    0.2780   -0.7130 C   0  0  0  0  0  0  0  0  0  0  0  0
    1.7780    0.5070   -0.7490 N   0  0  0  0  0  0  0  0  0  0  0  0
    2.0100    1.7510   -0.7660 C   0  0  0  0  0  0  0  0  0  0  0  0
    0.8720    2.4510   -0.7410 C   0  0  0  0  0  0  0  0  0  0  0  0
   -0.1290    1.6860   -0.7070 N   0  0  0  0  0  0  0  0  0  0  0  0
    3.1850    2.3870   -0.8160 C   0  0  0  0  0  3  0  0  0  0  0  0
    3.2220    3.7240   -0.8370 C   0  0  0  0  0  0  0  0  0  0  0  0
    2.0830    4.4240   -0.8170 C   0  0  0  0  0  3  0  0  0  0  0  0
    0.9080    3.7880   -0.7670 C   0  0  0  0  0  3  0  0  0  0  0  0
    4.8750    4.6190   -0.8940 Br  0  0  0  0  0  0  0  0  0  0  0  0
    2.5190   -0.2370   -0.7620 H   0  0  0  0  0  0  0  0  0  0  0  0
  1  2  2  0  0  0  0
  1  6  1  0  0  0  0
  2  3  1  0  0  0  0
  3  4  2  0  0  0  0
  4  5  1  0  0  0  0
  4  7  1  0  0  0  0
  5  9  1  0  0  0  0
  6  5  2  0  0  0  0
  7  8  1  0  0  0  0
  8 10  1  0  0  0  0
  9  8  2  0  0  0  0
 10 14  1  0  0  0  0
 11  7  1  0  0  0  0
 11 12  1  0  0  0  0
 12 13  1  0  0  0  0
 14 13  1  0  0  0  0
 15 19  2  0  0  0  0
 15  9  1  0  0  0  0
 16 15  1  0  0  0  0
 17 16  1  0  0  0  0
 17 18  1  0  0  0  0
 18 19  1  0  0  0  0
 20 17  2  0  0  0  0
 21 22  2  0  0  0  0
 21 20  1  0  0  0  0
 22 23  1  0  0  0  0
 23 18  2  0  0  0  0
 24 21  1  0  0  0  0
 25 16  1  0  0  0  0
M  END
>  <REMARK>
  Name = 
  1 active torsions:
  status: ('A' for Active; 'I' for Inactive)
    1  A    between atoms: C_9  and  C_11
                            x       y       z     vdW  Elec       q    Type
                         _______ _______ _______ _____ _____    ______ ____

>  <TORSDO>
F 1

$$$$
