REMARK  Name = 
REMARK  2 active torsions:
REMARK  status: ('A' for Active; 'I' for Inactive)
REMARK    1  A    between atoms: C_9  and  C_11
REMARK    2  A    between atoms: C_17  and  N_24
REMARK                            x       y       z     vdW  Elec       q    Type
REMARK                         _______ _______ _______ _____ _____    ______ ____
ROOT
ATOM      1  C   UNL     1      -3.953  -0.949  -0.712  0.00  0.00    +0.001 A 
ATOM      2  C   UNL     1      -4.136  -2.274  -0.712  0.00  0.00    +0.002 A 
ATOM      3  C   UNL     1      -3.080  -3.095  -0.700  0.00  0.00    +0.026 A 
ATOM      4  C   UNL     1      -1.842  -2.591  -0.687  0.00  0.00    +0.053 A 
ATOM      5  C   UNL     1      -1.659  -1.267  -0.687  0.00  0.00    +0.014 A 
ATOM      6  C   UNL     1      -2.714  -0.446  -0.700  0.00  0.00    +0.011 A 
ATOM      7  N   UNL     1      -0.733  -3.202  -0.687  0.00  0.00    -0.311 N 
ATOM      8  C   UNL     1       0.234  -2.387  -0.643  0.00  0.00    +0.207 A 
ATOM      9  C   UNL     1      -0.357  -0.963  -0.686  0.00  0.00    +0.086 A 
ATOM     10  O   UNL     1       1.507  -2.849  -0.585  0.00  0.00    -0.477 OA
ATOM     11  C   UNL     1      -0.179  -4.563  -0.736  0.00  0.00    +0.125 C 
ATOM     12  C   UNL     1       1.299  -4.557  -0.368  0.00  0.00    +0.025 C 
ATOM     13  C   UNL     1       1.456  -4.151   1.091  0.00  0.00    +0.043 C 
ATOM     14  C   UNL     1       1.964  -2.883   0.740  0.00  0.00    +0.231 C 
ENDROOT
BRANCH   9  15
ATOM     15  C   UNL     1       0.254   0.226  -0.713  0.00  0.00    +0.145 A 
ATOM     16  N   UNL     1       1.498   0.455  -0.749  0.00  0.00    -0.338 N 
ATOM     17  C   UNL     1       1.731   1.699  -0.766  0.00  0.00    +0.069 A 
ATOM     18  C   UNL     1       0.592   2.400  -0.741  0.00  0.00    +0.090 A 
ATOM     19  N   UNL     1      -0.408   1.634  -0.707  0.00  0.00    -0.228 NA
ATOM     20  C   UNL     1       2.905   2.336  -0.816  0.00  0.00    +0.060 A 
ATOM     21  C   UNL     1       2.942   3.672  -0.837  0.00  0.00    +0.128 A 
ATOM     22  C   UNL     1       1.803   4.372  -0.817  0.00  0.00    +0.035 A 
ATOM     23  C   UNL     1       0.628   3.736  -0.767  0.00  0.00    +0.032 A 
ATOM     24  H   UNL     1       2.240  -0.289  -0.762  0.00  0.00    +0.167 HD
BRANCH  21  25
ATOM     25  N   UNL     1       4.039   4.266  -0.874  0.00  0.00    +0.056 N 
ATOM     26  O   UNL     1       4.074   5.575  -0.894  0.00  0.00    -0.126 OA
ATOM     27  O   UNL     1       5.155   3.580  -0.894  0.00  0.00    -0.126 OA
ENDBRANCH  21  25
ENDBRANCH   9  15
TORSDOF 2
