REMARK  Name = 
REMARK  1 active torsions:
REMARK  status: ('A' for Active; 'I' for Inactive)
REMARK    1  A    between atoms: C_9  and  C_11
REMARK                            x       y       z     vdW  Elec       q    Type
REMARK                         _______ _______ _______ _____ _____    ______ ____
ROOT
ATOM      1  C   UNL     1      -3.602  -1.207  -0.712  0.00  0.00    +0.001 A 
ATOM      2  C   UNL     1      -3.785  -2.531  -0.712  0.00  0.00    +0.002 A 
ATOM      3  C   UNL     1      -2.730  -3.352  -0.700  0.00  0.00    +0.026 A 
ATOM      4  C   UNL     1      -1.491  -2.848  -0.687  0.00  0.00    +0.053 A 
ATOM      5  C   UNL     1      -1.308  -1.524  -0.687  0.00  0.00    +0.014 A 
ATOM      6  C   UNL     1      -2.363  -0.703  -0.700  0.00  0.00    +0.011 A 
ATOM      7  N   UNL     1      -0.383  -3.460  -0.687  0.00  0.00    -0.311 N 
ATOM      8  C   UNL     1       0.585  -2.645  -0.643  0.00  0.00    +0.207 A 
ATOM      9  C   UNL     1      -0.006  -1.220  -0.686  0.00  0.00    +0.086 A 
ATOM     10  O   UNL     1       1.858  -3.106  -0.585  0.00  0.00    -0.477 OA
ATOM     11  C   UNL     1       0.172  -4.820  -0.736  0.00  0.00    +0.125 C 
ATOM     12  C   UNL     1       1.650  -4.814  -0.368  0.00  0.00    +0.025 C 
ATOM     13  C   UNL     1       1.807  -4.408   1.091  0.00  0.00    +0.043 C 
ATOM     14  C   UNL     1       2.315  -3.141   0.740  0.00  0.00    +0.231 C 
ENDROOT
BRANCH   9  15
ATOM     15  C   UNL     1       0.605  -0.031  -0.713  0.00  0.00    +0.145 A 
ATOM     16  N   UNL     1       1.849   0.198  -0.749  0.00  0.00    -0.338 N 
ATOM     17  C   UNL     1       2.082   1.442  -0.766  0.00  0.00    +0.068 A 
ATOM     18  C   UNL     1       0.943   2.142  -0.741  0.00  0.00    +0.091 A 
ATOM     19  N   UNL     1      -0.057   1.377  -0.707  0.00  0.00    -0.227 NA
ATOM     20  C   UNL     1       3.256   2.078  -0.816  0.00  0.00    +0.049 A 
ATOM     21  C   UNL     1       3.293   3.414  -0.837  0.00  0.00    +0.061 A 
ATOM     22  C   UNL     1       2.154   4.114  -0.817  0.00  0.00    +0.061 A 
ATOM     23  C   UNL     1       0.979   3.478  -0.767  0.00  0.00    +0.051 A 
ATOM     24 CL   UNL     1       4.804   4.232  -0.889  0.00  0.00    -0.082 Cl
ATOM     25 CL   UNL     1       2.200   5.832  -0.856  0.00  0.00    -0.082 Cl
ATOM     26  H   UNL     1       2.591  -0.546  -0.762  0.00  0.00    +0.167 HD
ENDBRANCH   9  15
TORSDOF 1
