=
 OpenBabel01132613023D

 26 30  0  0  0  0  0  0  0  0999 V2000
   -3.6020   -1.2070   -0.7120 C   0  0  0  0  0  3  0  0  0  0  0  0
   -3.7850   -2.5310   -0.7120 C   0  0  0  0  0  3  0  0  0  0  0  0
   -2.7300   -3.3520   -0.7000 C   0  0  0  0  0  3  0  0  0  0  0  0
   -1.4910   -2.8480   -0.6870 C   0  0  0  0  0  0  0  0  0  0  0  0
   -1.3080   -1.5240   -0.6870 C   0  0  0  0  0  0  0  0  0  0  0  0
   -2.3630   -0.7030   -0.7000 C   0  0  0  0  0  3  0  0  0  0  0  0
   -0.3830   -3.4600   -0.6870 N   0  0  0  0  0  0  0  0  0  0  0  0
    0.5850   -2.6450   -0.6430 C   0  0  0  0  0  0  0  0  0  0  0  0
   -0.0060   -1.2200   -0.6860 C   0  0  0  0  0  0  0  0  0  0  0  0
    1.8580   -3.1060   -0.5850 O   0  0  0  0  0  0  0  0  0  0  0  0
    0.1720   -4.8200   -0.7360 C   0  0  0  0  0  2  0  0  0  0  0  0
    1.6500   -4.8140   -0.3680 C   0  0  0  0  0  2  0  0  0  0  0  0
    1.8070   -4.4080    1.0910 C   0  0  0  0  0  2  0  0  0  0  0  0
    2.3150   -3.1410    0.7400 C   0  0  0  0  0  2  0  0  0  0  0  0
    0.6050   -0.0310   -0.7130 C   0  0  0  0  0  0  0  0  0  0  0  0
    1.8490    0.1980   -0.7490 N   0  0  0  0  0  0  0  0  0  0  0  0
    2.0820    1.4420   -0.7660 C   0  0  0  0  0  0  0  0  0  0  0  0
    0.9430    2.1420   -0.7410 C   0  0  0  0  0  0  0  0  0  0  0  0
   -0.0570    1.3770   -0.7070 N   0  0  0  0  0  0  0  0  0  0  0  0
    3.2560    2.0780   -0.8160 C   0  0  0  0  0  3  0  0  0  0  0  0
    3.2930    3.4140   -0.8370 C   0  0  0  0  0  0  0  0  0  0  0  0
    2.1540    4.1140   -0.8170 C   0  0  0  0  0  0  0  0  0  0  0  0
    0.9790    3.4780   -0.7670 C   0  0  0  0  0  3  0  0  0  0  0  0
    4.8040    4.2320   -0.8890 Cl  0  0  0  0  0  0  0  0  0  0  0  0
    2.2000    5.8320   -0.8560 Cl  0  0  0  0  0  0  0  0  0  0  0  0
    2.5910   -0.5460   -0.7620 H   0  0  0  0  0  0  0  0  0  0  0  0
  1  2  2  0  0  0  0
  1  6  1  0  0  0  0
  2  3  1  0  0  0  0
  3  4  2  0  0  0  0
  4  5  1  0  0  0  0
  4  7  1  0  0  0  0
  5  9  1  0  0  0  0
  6  5  2  0  0  0  0
  7  8  1  0  0  0  0
  8 10  1  0  0  0  0
  9  8  2  0  0  0  0
 10 14  1  0  0  0  0
 11  7  1  0  0  0  0
 11 12  1  0  0  0  0
 12 13  1  0  0  0  0
 14 13  1  0  0  0  0
 15 19  2  0  0  0  0
 15  9  1  0  0  0  0
 16 15  1  0  0  0  0
 17 16  1  0  0  0  0
 17 18  1  0  0  0  0
 18 19  1  0  0  0  0
 20 17  2  0  0  0  0
 21 22  2  0  0  0  0
 21 20  1  0  0  0  0
 22 23  1  0  0  0  0
 23 18  2  0  0  0  0
 24 21  1  0  0  0  0
 25 22  1  0  0  0  0
 26 16  1  0  0  0  0
M  END
>  <REMARK>
  Name = 
  1 active torsions:
  status: ('A' for Active; 'I' for Inactive)
    1  A    between atoms: C_9  and  C_11
                            x       y       z     vdW  Elec       q    Type
                         _______ _______ _______ _____ _____    ______ ____

>  <TORSDO>
F 1

$$$$
